data_C360H252N180O72_2018-02-15_10:32:49
#******************************************
#
# CIF file created by Zeo++
# Zeo++ is an open source package to
# analyze microporous materials
#
#*******************************************

_cell_length_a		43.6226   
_cell_length_b		43.6226   
_cell_length_c		30.1092   
_cell_angle_alpha		90   
_cell_angle_beta		90   
_cell_angle_gamma		120   

_symmetry_space_group_name_H-M		'P1'
_symmetry_Int_Tables_number		1
_symmetry_cell_setting		Monoclinic

loop_
_symmetry_equiv_pos_as_xyz
'+x,+y,+z'

loop_
_atom_site_label
_atom_site_type_symbol
_atom_site_fract_x
_atom_site_fract_y
_atom_site_fract_z
1	C	0.173747	0.368233	0.957664
2	C	0.137801	0.341024	0.957199
3	C	0.127179	0.30459	0.957598
4	C	0.154397	0.29586	0.957186
5	C	0.190831	0.321671	0.290952
6	C	0.199571	0.357626	0.957156
7	H	0.147307	0.269867	0.960009
8	H	0.225558	0.376518	0.960096
9	H	0.118896	0.348113	0.960026
10	C	0.182762	0.404055	0.964549
11	C	0.217647	0.312672	0.297852
12	C	0.091361	0.277773	0.964473
13	O	0.251579	0.339404	0.969066
14	O	0.156032	0.411249	0.969176
15	O	0.084162	0.243842	0.96905
16	C	0.318785	0.12766	0.038677
17	C	0.355242	0.15335	0.038596
18	C	0.3678	0.190227	0.038725
19	C	0.342108	0.200988	0.038623
20	C	0.305228	0.176673	0.372082
21	C	0.294466	0.140217	0.038609
22	H	0.350706	0.227392	0.036206
23	H	0.268063	0.122416	0.036177
24	H	0.373045	0.144755	0.036123
25	C	0.307496	0.091007	0.035128
26	C	0.279864	0.187963	0.368545
27	C	0.404453	0.21559	0.035167
28	O	0.24605	0.163468	0.024562
29	O	0.331998	0.081692	0.024491
30	O	0.413772	0.249416	0.024583
31	C	0.232081	0.267601	0.320907
32	C	0.257293	0.286392	0.021112
33	C	0.275549	0.271558	0.042975
34	C	0.268218	0.237206	0.029507
35	N	0.242836	0.220638	0.331238
36	N	0.225732	0.234417	0.312106
37	N	0.298152	0.290397	0.076484
38	H	0.301759	0.313471	0.085219
39	H	0.30919	0.280595	0.095196
40	H	0.260883	0.310136	0.031949
41	N	0.287101	0.221736	0.043456
42	H	0.308463	0.236559	0.060072
43	N	0.212023	0.278962	0.299499
44	H	0.191798	0.260894	0.283162
45	C	0.227862	0.463557	0.320902
46	C	0.209107	0.469984	0.021148
47	C	0.223948	0.003084	0.042989
48	C	0.258283	0.030106	0.029469
49	N	0.274828	0.021287	0.331174
50	N	0.261036	0.490398	0.312055
51	N	0.205152	0.006866	0.076543
52	H	0.182198	0.987302	0.085502
53	H	0.21513	0.027599	0.095443
54	H	0.185356	0.449848	0.031995
55	N	0.27373	0.064463	0.043392
56	H	0.258898	0.070997	0.059997
57	N	0.216473	0.432137	0.299485
58	H	0.234522	0.429977	0.283104
59	C	0.031879	0.263394	0.320897
60	C	0.025458	0.238189	0.021107
61	C	0.49237	0.219939	0.042977
62	C	0.465354	0.227274	0.02951
63	N	0.474157	0.252628	0.331205
64	N	0.005036	0.269724	0.312062
65	N	0.488588	0.197338	0.076499
66	H	0.508142	0.193926	0.085423
67	H	0.467862	0.186585	0.095414
68	H	0.045592	0.234554	0.031914
69	N	0.430994	0.208364	0.043423
70	H	0.424458	0.186989	0.060014
71	N	0.063278	0.283401	0.299427
72	H	0.065439	0.303616	0.28306
73	C	0.173747	0.368233	0.290997
74	C	0.137801	0.341024	0.290531
75	C	0.127179	0.30459	0.290932
76	C	0.154397	0.29586	0.290521
77	C	0.190831	0.321671	0.624284
78	C	0.199571	0.357626	0.29049
79	H	0.147307	0.269867	0.293342
80	H	0.225558	0.376518	0.293428
81	H	0.118896	0.348113	0.293359
82	C	0.182762	0.404055	0.297882
83	C	0.217647	0.312672	0.631186
84	C	0.091361	0.277773	0.297805
85	O	0.251579	0.339404	0.302401
86	O	0.156032	0.411249	0.30251
87	O	0.084162	0.243842	0.302382
88	C	0.318785	0.12766	0.372009
89	C	0.355242	0.15335	0.37193
90	C	0.3678	0.190227	0.372059
91	C	0.342108	0.200988	0.371956
92	C	0.305228	0.176673	0.705416
93	C	0.294466	0.140217	0.371943
94	H	0.350706	0.227392	0.369538
95	H	0.268063	0.122416	0.369512
96	H	0.373045	0.144755	0.369455
97	C	0.307496	0.091007	0.368462
98	C	0.279864	0.187963	0.701879
99	C	0.404453	0.21559	0.368499
100	O	0.24605	0.163468	0.357894
101	O	0.331998	0.081692	0.357824
102	O	0.413772	0.249416	0.357917
103	C	0.232081	0.267601	0.654242
104	C	0.257293	0.286392	0.354447
105	C	0.275549	0.271558	0.376307
106	C	0.268218	0.237206	0.362839
107	N	0.242836	0.220638	0.664571
108	N	0.225732	0.234417	0.645441
109	N	0.298152	0.290397	0.409818
110	H	0.301759	0.313471	0.418553
111	H	0.30919	0.280595	0.42853
112	H	0.260883	0.310136	0.36528
113	N	0.287101	0.221736	0.376789
114	H	0.308463	0.236559	0.393405
115	N	0.212023	0.278962	0.632833
116	H	0.191798	0.260894	0.616496
117	C	0.227862	0.463557	0.654235
118	C	0.209107	0.469984	0.35448
119	C	0.223948	0.003084	0.37632
120	C	0.258283	0.030106	0.362803
121	N	0.274828	0.021287	0.664508
122	N	0.261036	0.490398	0.645388
123	N	0.205152	0.006866	0.409878
124	H	0.182198	0.987302	0.418836
125	H	0.21513	0.027599	0.428776
126	H	0.185356	0.449848	0.365327
127	N	0.27373	0.064463	0.376725
128	H	0.258898	0.070997	0.393332
129	N	0.216473	0.432137	0.632817
130	H	0.234522	0.429977	0.616436
131	C	0.031879	0.263394	0.654229
132	C	0.025458	0.238189	0.35444
133	C	0.49237	0.219939	0.37631
134	C	0.465354	0.227274	0.362843
135	N	0.474157	0.252628	0.664538
136	N	0.005036	0.269724	0.645394
137	N	0.488588	0.197338	0.409832
138	H	0.508142	0.193926	0.418756
139	H	0.467862	0.186585	0.428746
140	H	0.045592	0.234554	0.365247
141	N	0.430994	0.208364	0.376755
142	H	0.424458	0.186989	0.393348
143	N	0.063278	0.283401	0.63276
144	H	0.065439	0.303616	0.616393
145	C	0.173747	0.368233	0.624331
146	C	0.137801	0.341024	0.623866
147	C	0.127179	0.30459	0.624265
148	C	0.154397	0.29586	0.623856
149	C	0.190831	0.321671	0.957618
150	C	0.199571	0.357626	0.623823
151	H	0.147307	0.269867	0.626676
152	H	0.225558	0.376518	0.626762
153	H	0.118896	0.348113	0.626692
154	C	0.182762	0.404055	0.631216
155	C	0.217647	0.312672	0.964519
156	C	0.091361	0.277773	0.63114
157	O	0.251579	0.339404	0.635736
158	O	0.156032	0.411249	0.635842
159	O	0.084162	0.243842	0.635716
160	C	0.318785	0.12766	0.705343
161	C	0.355242	0.15335	0.705263
162	C	0.3678	0.190227	0.705393
163	C	0.342108	0.200988	0.70529
164	C	0.305228	0.176673	0.038748
165	C	0.294466	0.140217	0.705276
166	H	0.350706	0.227392	0.702872
167	H	0.268063	0.122416	0.702845
168	H	0.373045	0.144755	0.702789
169	C	0.307496	0.091007	0.701796
170	C	0.279864	0.187963	0.035213
171	C	0.404453	0.21559	0.701832
172	O	0.24605	0.163468	0.691227
173	O	0.331998	0.081692	0.691158
174	O	0.413772	0.249416	0.691251
175	C	0.232081	0.267601	0.987572
176	C	0.257293	0.286392	0.68778
177	C	0.275549	0.271558	0.70964
178	C	0.268218	0.237206	0.696173
179	N	0.242836	0.220638	0.997905
180	N	0.225732	0.234417	0.978774
181	N	0.298152	0.290397	0.743152
182	H	0.301759	0.313471	0.751887
183	H	0.30919	0.280595	0.761864
184	H	0.260883	0.310136	0.698614
185	N	0.287101	0.221736	0.710122
186	H	0.308463	0.236559	0.726738
187	N	0.212023	0.278962	0.966167
188	H	0.191798	0.260894	0.94983
189	C	0.227862	0.463557	0.987569
190	C	0.209107	0.469984	0.687813
191	C	0.223948	0.003084	0.709654
192	C	0.258283	0.030106	0.696136
193	N	0.274828	0.021287	0.997841
194	N	0.261036	0.490398	0.978721
195	N	0.205152	0.006866	0.743208
196	H	0.182198	0.987302	0.752169
197	H	0.21513	0.027599	0.762109
198	H	0.185356	0.449848	0.69866
199	N	0.27373	0.064463	0.710059
200	H	0.258898	0.070997	0.726665
201	N	0.216473	0.432137	0.96615
202	H	0.234522	0.429977	0.94977
203	C	0.031879	0.263394	0.987562
204	C	0.025458	0.238189	0.687773
205	C	0.49237	0.219939	0.709644
206	C	0.465354	0.227274	0.696176
207	N	0.474157	0.252628	0.997871
208	N	0.005036	0.269724	0.978728
209	N	0.488588	0.197338	0.743165
210	H	0.508142	0.193926	0.752089
211	H	0.467862	0.186585	0.76208
212	H	0.045592	0.234554	0.698581
213	N	0.430994	0.208364	0.710089
214	H	0.424458	0.186989	0.726678
215	N	0.063278	0.283401	0.966094
216	H	0.065439	0.303616	0.949727
217	C	0.173746	0.868231	0.957664
218	C	0.1378	0.841023	0.957199
219	C	0.127178	0.804589	0.957598
220	C	0.154395	0.795859	0.957186
221	C	0.190831	0.821673	0.290952
222	C	0.199571	0.857625	0.957156
223	H	0.147306	0.769865	0.960009
224	H	0.225559	0.876519	0.960096
225	H	0.118896	0.848114	0.960026
226	C	0.182763	0.904053	0.964549
227	C	0.217646	0.81267	0.297852
228	C	0.091361	0.777772	0.964473
229	O	0.251579	0.839405	0.969066
230	O	0.156032	0.911248	0.969176
231	O	0.084162	0.743842	0.96905
232	C	0.318785	0.627659	0.038677
233	C	0.35524	0.653349	0.038596
234	C	0.367801	0.690227	0.038725
235	C	0.342106	0.700987	0.038623
236	C	0.305229	0.676674	0.372082
237	C	0.294466	0.640217	0.038609
238	H	0.350705	0.727391	0.036206
239	H	0.268062	0.622416	0.036177
240	H	0.373046	0.644754	0.036123
241	C	0.307496	0.591006	0.035128
242	C	0.279865	0.687964	0.368545
243	C	0.404453	0.715591	0.035167
244	O	0.24605	0.663468	0.024562
245	O	0.331996	0.581691	0.024491
246	O	0.413772	0.749417	0.024583
247	C	0.232082	0.767602	0.320907
248	C	0.257293	0.786391	0.021112
249	C	0.275549	0.771557	0.042975
250	C	0.268218	0.737206	0.029507
251	N	0.242836	0.720639	0.331238
252	N	0.225732	0.734416	0.312106
253	N	0.298151	0.790396	0.076484
254	H	0.301759	0.81347	0.085219
255	H	0.30919	0.780594	0.095196
256	H	0.260883	0.810134	0.031949
257	N	0.2871	0.721735	0.043456
258	H	0.308463	0.736558	0.060072
259	N	0.212022	0.77896	0.299499
260	H	0.191799	0.760895	0.283162
261	C	0.227863	0.963559	0.320902
262	C	0.209107	0.969983	0.021148
263	C	0.223948	0.503085	0.042989
264	C	0.258282	0.530106	0.029469
265	N	0.274826	0.521286	0.331174
266	N	0.261035	0.990397	0.312055
267	N	0.205152	0.506865	0.076543
268	H	0.182197	0.487304	0.085502
269	H	0.215131	0.527599	0.095443
270	H	0.185356	0.949847	0.031995
271	N	0.273732	0.564464	0.043392
272	H	0.258898	0.570997	0.059997
273	N	0.216474	0.932138	0.299485
274	H	0.23452	0.929976	0.283104
275	C	0.031878	0.763393	0.320897
276	C	0.025458	0.738188	0.021107
277	C	0.492371	0.71994	0.042977
278	C	0.465353	0.727275	0.02951
279	N	0.474156	0.752628	0.331205
280	N	0.005035	0.769722	0.312062
281	N	0.488588	0.697337	0.076499
282	H	0.508143	0.693925	0.085423
283	H	0.467861	0.686585	0.095414
284	H	0.045593	0.734554	0.031914
285	N	0.430992	0.708362	0.043423
286	H	0.424458	0.68699	0.060014
287	N	0.06328	0.783402	0.299427
288	H	0.065438	0.803615	0.28306
289	C	0.173746	0.868231	0.290997
290	C	0.1378	0.841023	0.290531
291	C	0.127178	0.804589	0.290932
292	C	0.154395	0.795859	0.290521
293	C	0.190831	0.821673	0.624284
294	C	0.199571	0.857625	0.29049
295	H	0.147306	0.769865	0.293342
296	H	0.225559	0.876519	0.293428
297	H	0.118896	0.848114	0.293359
298	C	0.182763	0.904053	0.297882
299	C	0.217646	0.81267	0.631186
300	C	0.091361	0.777772	0.297805
301	O	0.251579	0.839405	0.302401
302	O	0.156032	0.911248	0.30251
303	O	0.084162	0.743842	0.302382
304	C	0.318785	0.627659	0.372009
305	C	0.35524	0.653349	0.37193
306	C	0.367801	0.690227	0.372059
307	C	0.342106	0.700987	0.371956
308	C	0.305229	0.676674	0.705416
309	C	0.294466	0.640217	0.371943
310	H	0.350705	0.727391	0.369538
311	H	0.268062	0.622416	0.369512
312	H	0.373046	0.644754	0.369455
313	C	0.307496	0.591006	0.368462
314	C	0.279865	0.687964	0.701879
315	C	0.404453	0.715591	0.368499
316	O	0.24605	0.663468	0.357894
317	O	0.331996	0.581691	0.357824
318	O	0.413772	0.749417	0.357917
319	C	0.232082	0.767602	0.654242
320	C	0.257293	0.786391	0.354447
321	C	0.275549	0.771557	0.376307
322	C	0.268218	0.737206	0.362839
323	N	0.242836	0.720639	0.664571
324	N	0.225732	0.734416	0.645441
325	N	0.298151	0.790396	0.409818
326	H	0.301759	0.81347	0.418553
327	H	0.30919	0.780594	0.42853
328	H	0.260883	0.810134	0.36528
329	N	0.2871	0.721735	0.376789
330	H	0.308463	0.736558	0.393405
331	N	0.212022	0.77896	0.632833
332	H	0.191799	0.760895	0.616496
333	C	0.227863	0.963559	0.654235
334	C	0.209107	0.969983	0.35448
335	C	0.223948	0.503085	0.37632
336	C	0.258282	0.530106	0.362803
337	N	0.274826	0.521286	0.664508
338	N	0.261035	0.990397	0.645388
339	N	0.205152	0.506865	0.409878
340	H	0.182197	0.487304	0.418836
341	H	0.215131	0.527599	0.428776
342	H	0.185356	0.949847	0.365327
343	N	0.273732	0.564464	0.376725
344	H	0.258898	0.570997	0.393332
345	N	0.216474	0.932138	0.632817
346	H	0.23452	0.929976	0.616436
347	C	0.031878	0.763393	0.654229
348	C	0.025458	0.738188	0.35444
349	C	0.492371	0.71994	0.37631
350	C	0.465353	0.727275	0.362843
351	N	0.474156	0.752628	0.664538
352	N	0.005035	0.769722	0.645394
353	N	0.488588	0.697337	0.409832
354	H	0.508143	0.693925	0.418756
355	H	0.467861	0.686585	0.428746
356	H	0.045593	0.734554	0.365247
357	N	0.430992	0.708362	0.376755
358	H	0.424458	0.68699	0.393348
359	N	0.06328	0.783402	0.63276
360	H	0.065438	0.803615	0.616393
361	C	0.173746	0.868231	0.624331
362	C	0.1378	0.841023	0.623866
363	C	0.127178	0.804589	0.624265
364	C	0.154395	0.795859	0.623856
365	C	0.190831	0.821673	0.957618
366	C	0.199571	0.857625	0.623823
367	H	0.147306	0.769865	0.626676
368	H	0.225559	0.876519	0.626762
369	H	0.118896	0.848114	0.626692
370	C	0.182763	0.904053	0.631216
371	C	0.217646	0.81267	0.964519
372	C	0.091361	0.777772	0.63114
373	O	0.251579	0.839405	0.635736
374	O	0.156032	0.911248	0.635842
375	O	0.084162	0.743842	0.635716
376	C	0.318785	0.627659	0.705343
377	C	0.35524	0.653349	0.705263
378	C	0.367801	0.690227	0.705393
379	C	0.342106	0.700987	0.70529
380	C	0.305229	0.676674	0.038748
381	C	0.294466	0.640217	0.705276
382	H	0.350705	0.727391	0.702872
383	H	0.268062	0.622416	0.702845
384	H	0.373046	0.644754	0.702789
385	C	0.307496	0.591006	0.701796
386	C	0.279865	0.687964	0.035213
387	C	0.404453	0.715591	0.701832
388	O	0.24605	0.663468	0.691227
389	O	0.331996	0.581691	0.691158
390	O	0.413772	0.749417	0.691251
391	C	0.232082	0.767602	0.987572
392	C	0.257293	0.786391	0.68778
393	C	0.275549	0.771557	0.70964
394	C	0.268218	0.737206	0.696173
395	N	0.242836	0.720639	0.997905
396	N	0.225732	0.734416	0.978774
397	N	0.298151	0.790396	0.743152
398	H	0.301759	0.81347	0.751887
399	H	0.30919	0.780594	0.761864
400	H	0.260883	0.810134	0.698614
401	N	0.2871	0.721735	0.710122
402	H	0.308463	0.736558	0.726738
403	N	0.212022	0.77896	0.966167
404	H	0.191799	0.760895	0.94983
405	C	0.227863	0.963559	0.987569
406	C	0.209107	0.969983	0.687813
407	C	0.223948	0.503085	0.709654
408	C	0.258282	0.530106	0.696136
409	N	0.274826	0.521286	0.997841
410	N	0.261035	0.990397	0.978721
411	N	0.205152	0.506865	0.743208
412	H	0.182197	0.487304	0.752169
413	H	0.215131	0.527599	0.762109
414	H	0.185356	0.949847	0.69866
415	N	0.273732	0.564464	0.710059
416	H	0.258898	0.570997	0.726665
417	N	0.216474	0.932138	0.96615
418	H	0.23452	0.929976	0.94977
419	C	0.031878	0.763393	0.987562
420	C	0.025458	0.738188	0.687773
421	C	0.492371	0.71994	0.709644
422	C	0.465353	0.727275	0.696176
423	N	0.474156	0.752628	0.997871
424	N	0.005035	0.769722	0.978728
425	N	0.488588	0.697337	0.743165
426	H	0.508143	0.693925	0.752089
427	H	0.467861	0.686585	0.76208
428	H	0.045593	0.734554	0.698581
429	N	0.430992	0.708362	0.710089
430	H	0.424458	0.68699	0.726678
431	N	0.06328	0.783402	0.966094
432	H	0.065438	0.803615	0.949727
433	C	0.673748	0.368233	0.957664
434	C	0.6378	0.341024	0.957199
435	C	0.62718	0.30459	0.957598
436	C	0.654397	0.29586	0.957186
437	C	0.690829	0.321671	0.290952
438	C	0.699571	0.357626	0.957156
439	H	0.647305	0.269867	0.960009
440	H	0.725558	0.376518	0.960096
441	H	0.618897	0.348113	0.960026
442	C	0.682762	0.404055	0.964549
443	C	0.717646	0.312672	0.297852
444	C	0.591361	0.277773	0.964473
445	O	0.751579	0.339404	0.969066
446	O	0.656031	0.411249	0.969176
447	O	0.584161	0.243842	0.96905
448	C	0.818785	0.12766	0.038677
449	C	0.855242	0.15335	0.038596
450	C	0.8678	0.190227	0.038725
451	C	0.842105	0.200988	0.038623
452	C	0.805229	0.176673	0.372082
453	C	0.794467	0.140217	0.038609
454	H	0.850704	0.227392	0.036206
455	H	0.768062	0.122416	0.036177
456	H	0.873045	0.144755	0.036123
457	C	0.807496	0.091007	0.035128
458	C	0.779865	0.187963	0.368545
459	C	0.904453	0.21559	0.035167
460	O	0.74605	0.163468	0.024562
461	O	0.831995	0.081692	0.024491
462	O	0.913772	0.249416	0.024583
463	C	0.732082	0.267601	0.320907
464	C	0.757293	0.286392	0.021112
465	C	0.775548	0.271558	0.042975
466	C	0.768218	0.237206	0.029507
467	N	0.742835	0.220638	0.331238
468	N	0.725733	0.234417	0.312106
469	N	0.798151	0.290397	0.076484
470	H	0.801759	0.313471	0.085219
471	H	0.809189	0.280595	0.095196
472	H	0.760882	0.310136	0.031949
473	N	0.7871	0.221736	0.043456
474	H	0.808463	0.236559	0.060072
475	N	0.712021	0.278962	0.299499
476	H	0.691798	0.260894	0.283162
477	C	0.727863	0.463557	0.320902
478	C	0.709106	0.469984	0.021148
479	C	0.723948	0.003084	0.042989
480	C	0.758283	0.030106	0.029469
481	N	0.774828	0.021287	0.331174
482	N	0.761035	0.490398	0.312055
483	N	0.705152	0.006866	0.076543
484	H	0.682197	0.987302	0.085502
485	H	0.715131	0.027599	0.095443
486	H	0.685355	0.449848	0.031995
487	N	0.77373	0.064463	0.043392
488	H	0.758899	0.070997	0.059997
489	N	0.716474	0.432137	0.299485
490	H	0.734522	0.429977	0.283104
491	C	0.53188	0.263394	0.320897
492	C	0.525457	0.238189	0.021107
493	C	0.99237	0.219939	0.042977
494	C	0.965354	0.227274	0.02951
495	N	0.974157	0.252628	0.331205
496	N	0.505035	0.269724	0.312062
497	N	0.988588	0.197338	0.076499
498	H	0.008143	0.193926	0.085423
499	H	0.967862	0.186585	0.095414
500	H	0.545592	0.234554	0.031914
501	N	0.930994	0.208364	0.043423
502	H	0.924458	0.186989	0.060014
503	N	0.563278	0.283401	0.299427
504	H	0.565438	0.303616	0.28306
505	C	0.673748	0.368233	0.290997
506	C	0.6378	0.341024	0.290531
507	C	0.62718	0.30459	0.290932
508	C	0.654397	0.29586	0.290521
509	C	0.690829	0.321671	0.624284
510	C	0.699571	0.357626	0.29049
511	H	0.647305	0.269867	0.293342
512	H	0.725558	0.376518	0.293428
513	H	0.618897	0.348113	0.293359
514	C	0.682762	0.404055	0.297882
515	C	0.717646	0.312672	0.631186
516	C	0.591361	0.277773	0.297805
517	O	0.751579	0.339404	0.302401
518	O	0.656031	0.411249	0.30251
519	O	0.584161	0.243842	0.302382
520	C	0.818785	0.12766	0.372009
521	C	0.855242	0.15335	0.37193
522	C	0.8678	0.190227	0.372059
523	C	0.842105	0.200988	0.371956
524	C	0.805229	0.176673	0.705416
525	C	0.794467	0.140217	0.371943
526	H	0.850704	0.227392	0.369538
527	H	0.768062	0.122416	0.369512
528	H	0.873045	0.144755	0.369455
529	C	0.807496	0.091007	0.368462
530	C	0.779865	0.187963	0.701879
531	C	0.904453	0.21559	0.368499
532	O	0.74605	0.163468	0.357894
533	O	0.831995	0.081692	0.357824
534	O	0.913772	0.249416	0.357917
535	C	0.732082	0.267601	0.654242
536	C	0.757293	0.286392	0.354447
537	C	0.775548	0.271558	0.376307
538	C	0.768218	0.237206	0.362839
539	N	0.742835	0.220638	0.664571
540	N	0.725733	0.234417	0.645441
541	N	0.798151	0.290397	0.409818
542	H	0.801759	0.313471	0.418553
543	H	0.809189	0.280595	0.42853
544	H	0.760882	0.310136	0.36528
545	N	0.7871	0.221736	0.376789
546	H	0.808463	0.236559	0.393405
547	N	0.712021	0.278962	0.632833
548	H	0.691798	0.260894	0.616496
549	C	0.727863	0.463557	0.654235
550	C	0.709106	0.469984	0.35448
551	C	0.723948	0.003084	0.37632
552	C	0.758283	0.030106	0.362803
553	N	0.774828	0.021287	0.664508
554	N	0.761035	0.490398	0.645388
555	N	0.705152	0.006866	0.409878
556	H	0.682197	0.987302	0.418836
557	H	0.715131	0.027599	0.428776
558	H	0.685355	0.449848	0.365327
559	N	0.77373	0.064463	0.376725
560	H	0.758899	0.070997	0.393332
561	N	0.716474	0.432137	0.632817
562	H	0.734522	0.429977	0.616436
563	C	0.53188	0.263394	0.654229
564	C	0.525457	0.238189	0.35444
565	C	0.99237	0.219939	0.37631
566	C	0.965354	0.227274	0.362843
567	N	0.974157	0.252628	0.664538
568	N	0.505035	0.269724	0.645394
569	N	0.988588	0.197338	0.409832
570	H	0.008143	0.193926	0.418756
571	H	0.967862	0.186585	0.428746
572	H	0.545592	0.234554	0.365247
573	N	0.930994	0.208364	0.376755
574	H	0.924458	0.186989	0.393348
575	N	0.563278	0.283401	0.63276
576	H	0.565438	0.303616	0.616393
577	C	0.673748	0.368233	0.624331
578	C	0.6378	0.341024	0.623866
579	C	0.62718	0.30459	0.624265
580	C	0.654397	0.29586	0.623856
581	C	0.690829	0.321671	0.957618
582	C	0.699571	0.357626	0.623823
583	H	0.647305	0.269867	0.626676
584	H	0.725558	0.376518	0.626762
585	H	0.618897	0.348113	0.626692
586	C	0.682762	0.404055	0.631216
587	C	0.717646	0.312672	0.964519
588	C	0.591361	0.277773	0.63114
589	O	0.751579	0.339404	0.635736
590	O	0.656031	0.411249	0.635842
591	O	0.584161	0.243842	0.635716
592	C	0.818785	0.12766	0.705343
593	C	0.855242	0.15335	0.705263
594	C	0.8678	0.190227	0.705393
595	C	0.842105	0.200988	0.70529
596	C	0.805229	0.176673	0.038748
597	C	0.794467	0.140217	0.705276
598	H	0.850704	0.227392	0.702872
599	H	0.768062	0.122416	0.702845
600	H	0.873045	0.144755	0.702789
601	C	0.807496	0.091007	0.701796
602	C	0.779865	0.187963	0.035213
603	C	0.904453	0.21559	0.701832
604	O	0.74605	0.163468	0.691227
605	O	0.831995	0.081692	0.691158
606	O	0.913772	0.249416	0.691251
607	C	0.732082	0.267601	0.987572
608	C	0.757293	0.286392	0.68778
609	C	0.775548	0.271558	0.70964
610	C	0.768218	0.237206	0.696173
611	N	0.742835	0.220638	0.997905
612	N	0.725733	0.234417	0.978774
613	N	0.798151	0.290397	0.743152
614	H	0.801759	0.313471	0.751887
615	H	0.809189	0.280595	0.761864
616	H	0.760882	0.310136	0.698614
617	N	0.7871	0.221736	0.710122
618	H	0.808463	0.236559	0.726738
619	N	0.712021	0.278962	0.966167
620	H	0.691798	0.260894	0.94983
621	C	0.727863	0.463557	0.987569
622	C	0.709106	0.469984	0.687813
623	C	0.723948	0.003084	0.709654
624	C	0.758283	0.030106	0.696136
625	N	0.774828	0.021287	0.997841
626	N	0.761035	0.490398	0.978721
627	N	0.705152	0.006866	0.743208
628	H	0.682197	0.987302	0.752169
629	H	0.715131	0.027599	0.762109
630	H	0.685355	0.449848	0.69866
631	N	0.77373	0.064463	0.710059
632	H	0.758899	0.070997	0.726665
633	N	0.716474	0.432137	0.96615
634	H	0.734522	0.429977	0.94977
635	C	0.53188	0.263394	0.987562
636	C	0.525457	0.238189	0.687773
637	C	0.99237	0.219939	0.709644
638	C	0.965354	0.227274	0.696176
639	N	0.974157	0.252628	0.997871
640	N	0.505035	0.269724	0.978728
641	N	0.988588	0.197338	0.743165
642	H	0.008143	0.193926	0.752089
643	H	0.967862	0.186585	0.76208
644	H	0.545592	0.234554	0.698581
645	N	0.930994	0.208364	0.710089
646	H	0.924458	0.186989	0.726678
647	N	0.563278	0.283401	0.966094
648	H	0.565438	0.303616	0.949727
649	C	0.673746	0.868231	0.957664
650	C	0.6378	0.841023	0.957199
651	C	0.627178	0.804589	0.957598
652	C	0.654395	0.795859	0.957186
653	C	0.690831	0.821673	0.290952
654	C	0.699571	0.857625	0.957156
655	H	0.647306	0.769865	0.960009
656	H	0.725558	0.876519	0.960096
657	H	0.618897	0.848114	0.960026
658	C	0.682763	0.904053	0.964549
659	C	0.717646	0.81267	0.297852
660	C	0.59136	0.777772	0.964473
661	O	0.751579	0.839405	0.969066
662	O	0.656031	0.911248	0.969176
663	O	0.584162	0.743842	0.96905
664	C	0.818786	0.627659	0.038677
665	C	0.85524	0.653349	0.038596
666	C	0.867801	0.690227	0.038725
667	C	0.842106	0.700987	0.038623
668	C	0.805228	0.676674	0.372082
669	C	0.794466	0.640217	0.038609
670	H	0.850705	0.727391	0.036206
671	H	0.768063	0.622416	0.036177
672	H	0.873046	0.644754	0.036123
673	C	0.807494	0.591006	0.035128
674	C	0.779864	0.687964	0.368545
675	C	0.904452	0.715591	0.035167
676	O	0.746049	0.663468	0.024562
677	O	0.831996	0.581691	0.024491
678	O	0.913771	0.749417	0.024583
679	C	0.732082	0.767602	0.320907
680	C	0.757293	0.786391	0.021112
681	C	0.775549	0.771557	0.042975
682	C	0.768217	0.737206	0.029507
683	N	0.742837	0.720639	0.331238
684	N	0.725731	0.734416	0.312106
685	N	0.798152	0.790396	0.076484
686	H	0.801759	0.81347	0.085219
687	H	0.80919	0.780594	0.095196
688	H	0.760883	0.810134	0.031949
689	N	0.7871	0.721735	0.043456
690	H	0.808461	0.736558	0.060072
691	N	0.712022	0.77896	0.299499
692	H	0.6918	0.760895	0.283162
693	C	0.727863	0.963559	0.320902
694	C	0.709107	0.969983	0.021148
695	C	0.723947	0.503085	0.042989
696	C	0.758281	0.530106	0.029469
697	N	0.774826	0.521286	0.331174
698	N	0.761035	0.990397	0.312055
699	N	0.705153	0.506865	0.076543
700	H	0.682197	0.487304	0.085502
701	H	0.71513	0.527599	0.095443
702	H	0.685355	0.949847	0.031995
703	N	0.773732	0.564464	0.043392
704	H	0.758898	0.570997	0.059997
705	N	0.716474	0.932138	0.299485
706	H	0.73452	0.929976	0.283104
707	C	0.531878	0.763393	0.320897
708	C	0.525458	0.738188	0.021107
709	C	0.992371	0.71994	0.042977
710	C	0.965353	0.727275	0.02951
711	N	0.974155	0.752628	0.331205
712	N	0.505035	0.769722	0.312062
713	N	0.988587	0.697337	0.076499
714	H	0.008143	0.693925	0.085423
715	H	0.967861	0.686585	0.095414
716	H	0.545592	0.734554	0.031914
717	N	0.930992	0.708362	0.043423
718	H	0.924457	0.68699	0.060014
719	N	0.563279	0.783402	0.299427
720	H	0.565438	0.803615	0.28306
721	C	0.673746	0.868231	0.290997
722	C	0.6378	0.841023	0.290531
723	C	0.627178	0.804589	0.290932
724	C	0.654395	0.795859	0.290521
725	C	0.690831	0.821673	0.624284
726	C	0.699571	0.857625	0.29049
727	H	0.647306	0.769865	0.293342
728	H	0.725558	0.876519	0.293428
729	H	0.618897	0.848114	0.293359
730	C	0.682763	0.904053	0.297882
731	C	0.717646	0.81267	0.631186
732	C	0.59136	0.777772	0.297805
733	O	0.751579	0.839405	0.302401
734	O	0.656031	0.911248	0.30251
735	O	0.584162	0.743842	0.302382
736	C	0.818786	0.627659	0.372009
737	C	0.85524	0.653349	0.37193
738	C	0.867801	0.690227	0.372059
739	C	0.842106	0.700987	0.371956
740	C	0.805228	0.676674	0.705416
741	C	0.794466	0.640217	0.371943
742	H	0.850705	0.727391	0.369538
743	H	0.768063	0.622416	0.369512
744	H	0.873046	0.644754	0.369455
745	C	0.807494	0.591006	0.368462
746	C	0.779864	0.687964	0.701879
747	C	0.904452	0.715591	0.368499
748	O	0.746049	0.663468	0.357894
749	O	0.831996	0.581691	0.357824
750	O	0.913771	0.749417	0.357917
751	C	0.732082	0.767602	0.654242
752	C	0.757293	0.786391	0.354447
753	C	0.775549	0.771557	0.376307
754	C	0.768217	0.737206	0.362839
755	N	0.742837	0.720639	0.664571
756	N	0.725731	0.734416	0.645441
757	N	0.798152	0.790396	0.409818
758	H	0.801759	0.81347	0.418553
759	H	0.80919	0.780594	0.42853
760	H	0.760883	0.810134	0.36528
761	N	0.7871	0.721735	0.376789
762	H	0.808461	0.736558	0.393405
763	N	0.712022	0.77896	0.632833
764	H	0.6918	0.760895	0.616496
765	C	0.727863	0.963559	0.654235
766	C	0.709107	0.969983	0.35448
767	C	0.723947	0.503085	0.37632
768	C	0.758281	0.530106	0.362803
769	N	0.774826	0.521286	0.664508
770	N	0.761035	0.990397	0.645388
771	N	0.705153	0.506865	0.409878
772	H	0.682197	0.487304	0.418836
773	H	0.71513	0.527599	0.428776
774	H	0.685355	0.949847	0.365327
775	N	0.773732	0.564464	0.376725
776	H	0.758898	0.570997	0.393332
777	N	0.716474	0.932138	0.632817
778	H	0.73452	0.929976	0.616436
779	C	0.531878	0.763393	0.654229
780	C	0.525458	0.738188	0.35444
781	C	0.992371	0.71994	0.37631
782	C	0.965353	0.727275	0.362843
783	N	0.974155	0.752628	0.664538
784	N	0.505035	0.769722	0.645394
785	N	0.988587	0.697337	0.409832
786	H	0.008143	0.693925	0.418756
787	H	0.967861	0.686585	0.428746
788	H	0.545592	0.734554	0.365247
789	N	0.930992	0.708362	0.376755
790	H	0.924457	0.68699	0.393348
791	N	0.563279	0.783402	0.63276
792	H	0.565438	0.803615	0.616393
793	C	0.673746	0.868231	0.624331
794	C	0.6378	0.841023	0.623866
795	C	0.627178	0.804589	0.624265
796	C	0.654395	0.795859	0.623856
797	C	0.690831	0.821673	0.957618
798	C	0.699571	0.857625	0.623823
799	H	0.647306	0.769865	0.626676
800	H	0.725558	0.876519	0.626762
801	H	0.618897	0.848114	0.626692
802	C	0.682763	0.904053	0.631216
803	C	0.717646	0.81267	0.964519
804	C	0.59136	0.777772	0.63114
805	O	0.751579	0.839405	0.635736
806	O	0.656031	0.911248	0.635842
807	O	0.584162	0.743842	0.635716
808	C	0.818786	0.627659	0.705343
809	C	0.85524	0.653349	0.705263
810	C	0.867801	0.690227	0.705393
811	C	0.842106	0.700987	0.70529
812	C	0.805228	0.676674	0.038748
813	C	0.794466	0.640217	0.705276
814	H	0.850705	0.727391	0.702872
815	H	0.768063	0.622416	0.702845
816	H	0.873046	0.644754	0.702789
817	C	0.807494	0.591006	0.701796
818	C	0.779864	0.687964	0.035213
819	C	0.904452	0.715591	0.701832
820	O	0.746049	0.663468	0.691227
821	O	0.831996	0.581691	0.691158
822	O	0.913771	0.749417	0.691251
823	C	0.732082	0.767602	0.987572
824	C	0.757293	0.786391	0.68778
825	C	0.775549	0.771557	0.70964
826	C	0.768217	0.737206	0.696173
827	N	0.742837	0.720639	0.997905
828	N	0.725731	0.734416	0.978774
829	N	0.798152	0.790396	0.743152
830	H	0.801759	0.81347	0.751887
831	H	0.80919	0.780594	0.761864
832	H	0.760883	0.810134	0.698614
833	N	0.7871	0.721735	0.710122
834	H	0.808461	0.736558	0.726738
835	N	0.712022	0.77896	0.966167
836	H	0.6918	0.760895	0.94983
837	C	0.727863	0.963559	0.987569
838	C	0.709107	0.969983	0.687813
839	C	0.723947	0.503085	0.709654
840	C	0.758281	0.530106	0.696136
841	N	0.774826	0.521286	0.997841
842	N	0.761035	0.990397	0.978721
843	N	0.705153	0.506865	0.743208
844	H	0.682197	0.487304	0.752169
845	H	0.71513	0.527599	0.762109
846	H	0.685355	0.949847	0.69866
847	N	0.773732	0.564464	0.710059
848	H	0.758898	0.570997	0.726665
849	N	0.716474	0.932138	0.96615
850	H	0.73452	0.929976	0.94977
851	C	0.531878	0.763393	0.987562
852	C	0.525458	0.738188	0.687773
853	C	0.992371	0.71994	0.709644
854	C	0.965353	0.727275	0.696176
855	N	0.974155	0.752628	0.997871
856	N	0.505035	0.769722	0.978728
857	N	0.988587	0.697337	0.743165
858	H	0.008143	0.693925	0.752089
859	H	0.967861	0.686585	0.76208
860	H	0.545592	0.734554	0.698581
861	N	0.930992	0.708362	0.710089
862	H	0.924457	0.68699	0.726678
863	N	0.563279	0.783402	0.966094
864	H	0.565438	0.803615	0.949727
