data_C432H288N72O72_2018-02-15_10:32:49
#******************************************
#
# CIF file created by Zeo++
# Zeo++ is an open source package to
# analyze microporous materials
#
#*******************************************

_cell_length_a		43.8426   
_cell_length_b		43.8426   
_cell_length_c		30.112   
_cell_angle_alpha		90   
_cell_angle_beta		90   
_cell_angle_gamma		120   

_symmetry_space_group_name_H-M		'P1'
_symmetry_Int_Tables_number		1
_symmetry_cell_setting		Monoclinic

loop_
_symmetry_equiv_pos_as_xyz
'+x,+y,+z'

loop_
_atom_site_label
_atom_site_type_symbol
_atom_site_fract_x
_atom_site_fract_y
_atom_site_fract_z
1	C	0.174067	0.368118	0.953532
2	C	0.138193	0.341365	0.953303
3	C	0.127207	0.305001	0.953476
4	C	0.153968	0.295888	0.9533
5	C	0.190334	0.321267	0.286831
6	C	0.199457	0.357146	0.95327
7	H	0.146568	0.269922	0.956166
8	H	0.225414	0.375701	0.956235
9	H	0.119628	0.348766	0.956166
10	C	0.183613	0.404027	0.959317
11	C	0.216699	0.31173	0.29264
12	C	0.091303	0.278632	0.959251
13	O	0.250535	0.337822	0.965096
14	O	0.157522	0.411765	0.965172
15	O	0.083559	0.244796	0.965046
16	C	0.320349	0.12816	0.042712
17	C	0.356226	0.154908	0.042955
18	C	0.36721	0.191273	0.042775
19	C	0.340451	0.200391	0.042991
20	C	0.304084	0.175015	0.376149
21	C	0.294966	0.139138	0.042977
22	H	0.34785	0.226358	0.04016
23	H	0.268999	0.120577	0.040122
24	H	0.37479	0.147513	0.040034
25	C	0.310802	0.092252	0.036928
26	C	0.277711	0.18455	0.370413
27	C	0.403113	0.217643	0.036991
28	O	0.24388	0.158458	0.031249
29	O	0.336891	0.084507	0.031102
30	O	0.410852	0.251474	0.031153
31	C	0.271611	0.265663	0.032003
32	C	0.254249	0.281571	0.011597
33	C	0.229651	0.26461	0.310183
34	C	0.22281	0.230624	0.2977
35	C	0.24017	0.214715	0.318108
36	C	0.264765	0.231674	0.019527
37	H	0.205454	0.217299	0.272576
38	H	0.258739	0.305046	0.024245
39	H	0.288977	0.278993	0.057116
40	H	0.235697	0.191249	0.305449
41	N	0.210632	0.278031	0.290736
42	H	0.190522	0.261632	0.27295
43	N	0.28379	0.218252	0.038961
44	H	0.303905	0.234654	0.056738
45	C	0.229698	0.005033	0.031945
46	C	0.213795	0.471751	0.011578
47	C	0.230751	0.4641	0.310169
48	C	0.264711	0.491256	0.297617
49	C	0.280596	0.024549	0.317953
50	C	0.263662	0.032185	0.019405
51	H	0.278022	0.487214	0.272486
52	H	0.190347	0.452754	0.024277
53	H	0.216399	0.009063	0.057103
54	H	0.30408	0.043527	0.305316
55	N	0.217312	0.431655	0.290729
56	H	0.233701	0.427939	0.272925
57	N	0.277106	0.064624	0.038864
58	H	0.260721	0.068336	0.056681
59	C	0.490324	0.223737	0.031936
60	C	0.023596	0.241097	0.011536
61	C	0.031232	0.265687	0.310111
62	C	0.004091	0.272535	0.297629
63	C	0.470816	0.255162	0.318017
64	C	0.463179	0.230574	0.019445
65	H	0.008117	0.289867	0.272475
66	H	0.04259	0.236627	0.024199
67	H	0.486297	0.206398	0.057081
68	H	0.451829	0.259641	0.305352
69	N	0.063675	0.284702	0.290666
70	H	0.06739	0.304814	0.27288
71	N	0.430738	0.211568	0.038894
72	H	0.427025	0.191462	0.056692
73	C	0.174067	0.368118	0.286864
74	C	0.138193	0.341365	0.286637
75	C	0.127207	0.305001	0.28681
76	C	0.153968	0.295888	0.286633
77	C	0.190334	0.321267	0.620164
78	C	0.199457	0.357146	0.286601
79	H	0.146568	0.269922	0.289497
80	H	0.225414	0.375701	0.289567
81	H	0.119628	0.348766	0.289498
82	C	0.183613	0.404027	0.292649
83	C	0.216699	0.31173	0.625976
84	C	0.091303	0.278632	0.292584
85	O	0.250535	0.337822	0.298429
86	O	0.157522	0.411765	0.298506
87	O	0.083559	0.244796	0.298377
88	C	0.320349	0.12816	0.376046
89	C	0.356226	0.154908	0.376288
90	C	0.36721	0.191273	0.376109
91	C	0.340451	0.200391	0.376325
92	C	0.304084	0.175015	0.709484
93	C	0.294966	0.139138	0.376311
94	H	0.34785	0.226358	0.373492
95	H	0.268999	0.120577	0.373455
96	H	0.37479	0.147513	0.373369
97	C	0.310802	0.092252	0.370261
98	C	0.277711	0.18455	0.703745
99	C	0.403113	0.217643	0.370324
100	O	0.24388	0.158458	0.364582
101	O	0.336891	0.084507	0.364436
102	O	0.410852	0.251474	0.364485
103	C	0.271611	0.265663	0.365336
104	C	0.254249	0.281571	0.344932
105	C	0.229651	0.26461	0.643517
106	C	0.22281	0.230624	0.631033
107	C	0.24017	0.214715	0.651444
108	C	0.264765	0.231674	0.352862
109	H	0.205454	0.217299	0.60591
110	H	0.258739	0.305046	0.357578
111	H	0.288977	0.278993	0.390452
112	H	0.235697	0.191249	0.638784
113	N	0.210632	0.278031	0.624069
114	H	0.190522	0.261632	0.606282
115	N	0.28379	0.218252	0.372296
116	H	0.303905	0.234654	0.390073
117	C	0.229698	0.005033	0.365279
118	C	0.213795	0.471751	0.344912
119	C	0.230751	0.4641	0.643503
120	C	0.264711	0.491256	0.63095
121	C	0.280596	0.024549	0.651288
122	C	0.263662	0.032185	0.352739
123	H	0.278022	0.487214	0.605821
124	H	0.190347	0.452754	0.357611
125	H	0.216399	0.009063	0.390439
126	H	0.30408	0.043527	0.638652
127	N	0.217312	0.431655	0.624063
128	H	0.233701	0.427939	0.606259
129	N	0.277106	0.064624	0.372197
130	H	0.260721	0.068336	0.390013
131	C	0.490324	0.223737	0.365269
132	C	0.023596	0.241097	0.344869
133	C	0.031232	0.265687	0.643444
134	C	0.004091	0.272535	0.630964
135	C	0.470816	0.255162	0.651351
136	C	0.463179	0.230574	0.352779
137	H	0.008117	0.289867	0.605808
138	H	0.04259	0.236627	0.357531
139	H	0.486297	0.206398	0.390415
140	H	0.451829	0.259641	0.638685
141	N	0.063675	0.284702	0.624
142	H	0.06739	0.304814	0.606213
143	N	0.430738	0.211568	0.372227
144	H	0.427025	0.191462	0.390027
145	C	0.174067	0.368118	0.620197
146	C	0.138193	0.341365	0.619971
147	C	0.127207	0.305001	0.620144
148	C	0.153968	0.295888	0.619968
149	C	0.190334	0.321267	0.953499
150	C	0.199457	0.357146	0.619935
151	H	0.146568	0.269922	0.622831
152	H	0.225414	0.375701	0.6229
153	H	0.119628	0.348766	0.622831
154	C	0.183613	0.404027	0.625982
155	C	0.216699	0.31173	0.959307
156	C	0.091303	0.278632	0.625916
157	O	0.250535	0.337822	0.631764
158	O	0.157522	0.411765	0.63184
159	O	0.083559	0.244796	0.631711
160	C	0.320349	0.12816	0.709381
161	C	0.356226	0.154908	0.709623
162	C	0.36721	0.191273	0.709444
163	C	0.340451	0.200391	0.70966
164	C	0.304084	0.175015	0.042815
165	C	0.294966	0.139138	0.709643
166	H	0.34785	0.226358	0.706827
167	H	0.268999	0.120577	0.70679
168	H	0.37479	0.147513	0.706701
169	C	0.310802	0.092252	0.703596
170	C	0.277711	0.18455	0.037079
171	C	0.403113	0.217643	0.703659
172	O	0.24388	0.158458	0.697917
173	O	0.336891	0.084507	0.697771
174	O	0.410852	0.251474	0.697821
175	C	0.271611	0.265663	0.698671
176	C	0.254249	0.281571	0.678264
177	C	0.229651	0.26461	0.976852
178	C	0.22281	0.230624	0.964368
179	C	0.24017	0.214715	0.984776
180	C	0.264765	0.231674	0.686194
181	H	0.205454	0.217299	0.939246
182	H	0.258739	0.305046	0.690913
183	H	0.288977	0.278993	0.723784
184	H	0.235697	0.191249	0.972116
185	N	0.210632	0.278031	0.957404
186	H	0.190522	0.261632	0.939618
187	N	0.28379	0.218252	0.705628
188	H	0.303905	0.234654	0.723405
189	C	0.229698	0.005033	0.698611
190	C	0.213795	0.471751	0.678244
191	C	0.230751	0.4641	0.976835
192	C	0.264711	0.491256	0.964285
193	C	0.280596	0.024549	0.984619
194	C	0.263662	0.032185	0.686074
195	H	0.278022	0.487214	0.939153
196	H	0.190347	0.452754	0.690943
197	H	0.216399	0.009063	0.72377
198	H	0.30408	0.043527	0.971983
199	N	0.217312	0.431655	0.957394
200	H	0.233701	0.427939	0.939594
201	N	0.277106	0.064624	0.705532
202	H	0.260721	0.068336	0.723349
203	C	0.490324	0.223737	0.698604
204	C	0.023596	0.241097	0.678204
205	C	0.031232	0.265687	0.976779
206	C	0.004091	0.272535	0.964295
207	C	0.470816	0.255162	0.984686
208	C	0.463179	0.230574	0.686111
209	H	0.008117	0.289867	0.939143
210	H	0.04259	0.236627	0.690867
211	H	0.486297	0.206398	0.723747
212	H	0.451829	0.259641	0.97202
213	N	0.063675	0.284702	0.957335
214	H	0.06739	0.304814	0.939548
215	N	0.430738	0.211568	0.705562
216	H	0.427025	0.191462	0.723359
217	C	0.174068	0.868119	0.953532
218	C	0.138193	0.841365	0.953303
219	C	0.127207	0.805001	0.953476
220	C	0.153968	0.795886	0.9533
221	C	0.190334	0.821267	0.286831
222	C	0.199456	0.857147	0.95327
223	H	0.14657	0.769922	0.956166
224	H	0.225414	0.875701	0.956235
225	H	0.119629	0.848766	0.956166
226	C	0.183613	0.904027	0.959317
227	C	0.2167	0.81173	0.29264
228	C	0.091302	0.778632	0.959251
229	O	0.250535	0.837823	0.965096
230	O	0.157522	0.911765	0.965172
231	O	0.08356	0.744797	0.965046
232	C	0.32035	0.628161	0.042712
233	C	0.356227	0.654909	0.042955
234	C	0.36721	0.691274	0.042775
235	C	0.340451	0.700392	0.042991
236	C	0.304085	0.675015	0.376149
237	C	0.294966	0.639139	0.042977
238	H	0.347851	0.726358	0.04016
239	H	0.269	0.620579	0.040122
240	H	0.374791	0.647514	0.040034
241	C	0.310803	0.592253	0.036928
242	C	0.277711	0.68455	0.370413
243	C	0.403113	0.717643	0.036991
244	O	0.243879	0.658457	0.031249
245	O	0.336891	0.584507	0.031102
246	O	0.410851	0.751473	0.031153
247	C	0.271611	0.765664	0.032003
248	C	0.25425	0.781571	0.011597
249	C	0.229651	0.76461	0.310183
250	C	0.222811	0.730624	0.2977
251	C	0.24017	0.714717	0.318108
252	C	0.264766	0.731675	0.019527
253	H	0.205455	0.7173	0.272576
254	H	0.25874	0.805046	0.024245
255	H	0.288977	0.778993	0.057116
256	H	0.235698	0.69125	0.305449
257	N	0.210632	0.778032	0.290736
258	H	0.190522	0.761631	0.27295
259	N	0.283791	0.718254	0.038961
260	H	0.303906	0.734654	0.056738
261	C	0.229698	0.505034	0.031945
262	C	0.213796	0.971752	0.011578
263	C	0.230751	0.9641	0.310169
264	C	0.264712	0.991257	0.297617
265	C	0.280596	0.52455	0.317953
266	C	0.263663	0.532185	0.019405
267	H	0.278022	0.987214	0.272486
268	H	0.190347	0.952754	0.024277
269	H	0.216399	0.509063	0.057103
270	H	0.304079	0.543526	0.305316
271	N	0.21731	0.931653	0.290729
272	H	0.2337	0.927939	0.272925
273	N	0.277106	0.564625	0.038864
274	H	0.260721	0.568336	0.056681
275	C	0.490325	0.723737	0.031936
276	C	0.023597	0.741099	0.011536
277	C	0.031231	0.765687	0.310111
278	C	0.004091	0.772535	0.297628
279	C	0.470817	0.755163	0.318017
280	C	0.46318	0.730574	0.019445
281	H	0.008118	0.789868	0.272475
282	H	0.042589	0.736627	0.024199
283	H	0.486298	0.706399	0.057081
284	H	0.451828	0.75964	0.305352
285	N	0.063676	0.784703	0.290666
286	H	0.067391	0.804814	0.27288
287	N	0.430739	0.711569	0.038894
288	H	0.427026	0.691463	0.056692
289	C	0.174068	0.868119	0.286864
290	C	0.138193	0.841365	0.286637
291	C	0.127207	0.805001	0.28681
292	C	0.153968	0.795886	0.286633
293	C	0.190334	0.821267	0.620164
294	C	0.199456	0.857147	0.286601
295	H	0.14657	0.769922	0.289497
296	H	0.225414	0.875701	0.289567
297	H	0.119629	0.848766	0.289498
298	C	0.183613	0.904027	0.292649
299	C	0.2167	0.81173	0.625976
300	C	0.091302	0.778632	0.292584
301	O	0.250535	0.837823	0.298429
302	O	0.157522	0.911765	0.298506
303	O	0.08356	0.744797	0.298377
304	C	0.32035	0.628161	0.376046
305	C	0.356227	0.654909	0.376288
306	C	0.36721	0.691274	0.376109
307	C	0.340451	0.700392	0.376325
308	C	0.304085	0.675015	0.709484
309	C	0.294966	0.639139	0.376311
310	H	0.347851	0.726358	0.373492
311	H	0.269	0.620579	0.373455
312	H	0.374791	0.647514	0.373369
313	C	0.310803	0.592253	0.370261
314	C	0.277711	0.68455	0.703745
315	C	0.403113	0.717643	0.370324
316	O	0.243879	0.658457	0.364582
317	O	0.336891	0.584507	0.364436
318	O	0.410851	0.751473	0.364485
319	C	0.271611	0.765664	0.365336
320	C	0.25425	0.781571	0.344932
321	C	0.229651	0.76461	0.643517
322	C	0.222811	0.730624	0.631033
323	C	0.24017	0.714717	0.651444
324	C	0.264766	0.731675	0.352862
325	H	0.205455	0.7173	0.60591
326	H	0.25874	0.805046	0.357578
327	H	0.288977	0.778993	0.390452
328	H	0.235698	0.69125	0.638784
329	N	0.210632	0.778032	0.624069
330	H	0.190522	0.761631	0.606282
331	N	0.283791	0.718254	0.372296
332	H	0.303906	0.734654	0.390073
333	C	0.229698	0.505034	0.365279
334	C	0.213796	0.971752	0.344912
335	C	0.230751	0.9641	0.643503
336	C	0.264712	0.991257	0.63095
337	C	0.280596	0.52455	0.651288
338	C	0.263663	0.532185	0.352739
339	H	0.278022	0.987214	0.605821
340	H	0.190347	0.952754	0.357611
341	H	0.216399	0.509063	0.390439
342	H	0.304079	0.543526	0.638652
343	N	0.21731	0.931653	0.624063
344	H	0.2337	0.927939	0.606259
345	N	0.277106	0.564625	0.372197
346	H	0.260721	0.568336	0.390013
347	C	0.490325	0.723737	0.365269
348	C	0.023597	0.741099	0.344869
349	C	0.031231	0.765687	0.643444
350	C	0.004091	0.772535	0.630964
351	C	0.470817	0.755163	0.651351
352	C	0.46318	0.730574	0.352779
353	H	0.008118	0.789868	0.605808
354	H	0.042589	0.736627	0.357531
355	H	0.486298	0.706399	0.390415
356	H	0.451828	0.75964	0.638685
357	N	0.063676	0.784703	0.624
358	H	0.067391	0.804814	0.606213
359	N	0.430739	0.711569	0.372227
360	H	0.427026	0.691463	0.390027
361	C	0.174068	0.868119	0.620197
362	C	0.138193	0.841365	0.619971
363	C	0.127207	0.805001	0.620144
364	C	0.153968	0.795886	0.619968
365	C	0.190334	0.821267	0.953499
366	C	0.199456	0.857147	0.619935
367	H	0.14657	0.769922	0.622831
368	H	0.225414	0.875701	0.6229
369	H	0.119629	0.848766	0.622831
370	C	0.183613	0.904027	0.625982
371	C	0.2167	0.81173	0.959307
372	C	0.091302	0.778632	0.625916
373	O	0.250535	0.837823	0.631764
374	O	0.157522	0.911765	0.63184
375	O	0.08356	0.744797	0.631711
376	C	0.32035	0.628161	0.709381
377	C	0.356227	0.654909	0.709623
378	C	0.36721	0.691274	0.709444
379	C	0.340451	0.700392	0.70966
380	C	0.304085	0.675015	0.042815
381	C	0.294966	0.639139	0.709643
382	H	0.347851	0.726358	0.706827
383	H	0.269	0.620579	0.70679
384	H	0.374791	0.647514	0.706701
385	C	0.310803	0.592253	0.703596
386	C	0.277711	0.68455	0.037079
387	C	0.403113	0.717643	0.703659
388	O	0.243879	0.658457	0.697917
389	O	0.336891	0.584507	0.697771
390	O	0.410851	0.751473	0.697821
391	C	0.271611	0.765664	0.698671
392	C	0.25425	0.781571	0.678264
393	C	0.229651	0.76461	0.976852
394	C	0.222811	0.730624	0.964368
395	C	0.24017	0.714717	0.984776
396	C	0.264766	0.731675	0.686194
397	H	0.205455	0.7173	0.939246
398	H	0.25874	0.805046	0.690913
399	H	0.288977	0.778993	0.723784
400	H	0.235698	0.69125	0.972116
401	N	0.210632	0.778032	0.957404
402	H	0.190522	0.761631	0.939618
403	N	0.283791	0.718254	0.705628
404	H	0.303906	0.734654	0.723405
405	C	0.229698	0.505034	0.698611
406	C	0.213796	0.971752	0.678244
407	C	0.230751	0.9641	0.976835
408	C	0.264712	0.991257	0.964285
409	C	0.280596	0.52455	0.984619
410	C	0.263663	0.532185	0.686074
411	H	0.278022	0.987214	0.939153
412	H	0.190347	0.952754	0.690943
413	H	0.216399	0.509063	0.72377
414	H	0.304079	0.543526	0.971983
415	N	0.21731	0.931653	0.957394
416	H	0.2337	0.927939	0.939594
417	N	0.277106	0.564625	0.705532
418	H	0.260721	0.568336	0.723349
419	C	0.490325	0.723737	0.698604
420	C	0.023597	0.741099	0.678204
421	C	0.031231	0.765687	0.976779
422	C	0.004091	0.772535	0.964295
423	C	0.470817	0.755163	0.984686
424	C	0.46318	0.730574	0.686111
425	H	0.008118	0.789868	0.939143
426	H	0.042589	0.736627	0.690867
427	H	0.486298	0.706399	0.723747
428	H	0.451828	0.75964	0.97202
429	N	0.063676	0.784703	0.957335
430	H	0.067391	0.804814	0.939548
431	N	0.430739	0.711569	0.705562
432	H	0.427026	0.691463	0.723359
433	C	0.674067	0.368118	0.953532
434	C	0.638193	0.341365	0.953303
435	C	0.627208	0.305001	0.953476
436	C	0.653968	0.295888	0.9533
437	C	0.690333	0.321267	0.286831
438	C	0.699457	0.357146	0.95327
439	H	0.646568	0.269922	0.956166
440	H	0.725414	0.375701	0.956235
441	H	0.619628	0.348766	0.956166
442	C	0.683614	0.404027	0.959317
443	C	0.716699	0.31173	0.29264
444	C	0.591303	0.278632	0.959251
445	O	0.750535	0.337822	0.965096
446	O	0.657523	0.411765	0.965172
447	O	0.583559	0.244796	0.965046
448	C	0.820349	0.12816	0.042712
449	C	0.856226	0.154908	0.042955
450	C	0.86721	0.191273	0.042775
451	C	0.840451	0.200391	0.042991
452	C	0.804084	0.175015	0.376149
453	C	0.794966	0.139138	0.042977
454	H	0.84785	0.226358	0.04016
455	H	0.768999	0.120577	0.040122
456	H	0.87479	0.147513	0.040034
457	C	0.810802	0.092252	0.036928
458	C	0.777711	0.18455	0.370413
459	C	0.903113	0.217643	0.036991
460	O	0.743879	0.158458	0.031249
461	O	0.836891	0.084507	0.031102
462	O	0.910852	0.251474	0.031153
463	C	0.77161	0.265663	0.032003
464	C	0.754248	0.281571	0.011597
465	C	0.729651	0.26461	0.310183
466	C	0.72281	0.230624	0.2977
467	C	0.740169	0.214715	0.318108
468	C	0.764765	0.231674	0.019527
469	H	0.705455	0.217299	0.272576
470	H	0.758739	0.305046	0.024245
471	H	0.788976	0.278993	0.057116
472	H	0.735696	0.191249	0.305449
473	N	0.710631	0.278031	0.290736
474	H	0.690523	0.261632	0.27295
475	N	0.78379	0.218252	0.038961
476	H	0.803906	0.234654	0.056738
477	C	0.729697	0.005033	0.031945
478	C	0.713794	0.471751	0.011578
479	C	0.73075	0.4641	0.310169
480	C	0.76471	0.491256	0.297617
481	C	0.780596	0.024549	0.317953
482	C	0.763662	0.032185	0.019405
483	H	0.778021	0.487214	0.272486
484	H	0.690348	0.452754	0.024277
485	H	0.716398	0.009063	0.057103
486	H	0.80408	0.043527	0.305316
487	N	0.717312	0.431655	0.290729
488	H	0.733701	0.427939	0.272925
489	N	0.777106	0.064624	0.038864
490	H	0.760722	0.068336	0.056681
491	C	0.990324	0.223737	0.031936
492	C	0.523595	0.241097	0.011536
493	C	0.531232	0.265687	0.310111
494	C	0.504092	0.272535	0.297629
495	C	0.970816	0.255162	0.318017
496	C	0.963179	0.230574	0.019445
497	H	0.508117	0.289867	0.272475
498	H	0.54259	0.236627	0.024199
499	H	0.986297	0.206398	0.057081
500	H	0.951827	0.259641	0.305352
501	N	0.563674	0.284702	0.290666
502	H	0.567389	0.304814	0.27288
503	N	0.930738	0.211568	0.038894
504	H	0.927025	0.191462	0.056692
505	C	0.674067	0.368118	0.286864
506	C	0.638193	0.341365	0.286637
507	C	0.627208	0.305001	0.28681
508	C	0.653968	0.295888	0.286633
509	C	0.690333	0.321267	0.620164
510	C	0.699457	0.357146	0.286601
511	H	0.646568	0.269922	0.289497
512	H	0.725414	0.375701	0.289567
513	H	0.619628	0.348766	0.289498
514	C	0.683614	0.404027	0.292649
515	C	0.716699	0.31173	0.625976
516	C	0.591303	0.278632	0.292584
517	O	0.750535	0.337822	0.298429
518	O	0.657523	0.411765	0.298506
519	O	0.583559	0.244796	0.298377
520	C	0.820349	0.12816	0.376046
521	C	0.856226	0.154908	0.376288
522	C	0.86721	0.191273	0.376109
523	C	0.840451	0.200391	0.376325
524	C	0.804084	0.175015	0.709484
525	C	0.794966	0.139138	0.376311
526	H	0.84785	0.226358	0.373492
527	H	0.768999	0.120577	0.373455
528	H	0.87479	0.147513	0.373369
529	C	0.810802	0.092252	0.370261
530	C	0.777711	0.18455	0.703745
531	C	0.903113	0.217643	0.370324
532	O	0.743879	0.158458	0.364582
533	O	0.836891	0.084507	0.364436
534	O	0.910852	0.251474	0.364485
535	C	0.77161	0.265663	0.365336
536	C	0.754248	0.281571	0.344932
537	C	0.729651	0.26461	0.643517
538	C	0.72281	0.230624	0.631033
539	C	0.740169	0.214715	0.651444
540	C	0.764765	0.231674	0.352862
541	H	0.705455	0.217299	0.60591
542	H	0.758739	0.305046	0.357578
543	H	0.788976	0.278993	0.390452
544	H	0.735696	0.191249	0.638784
545	N	0.710631	0.278031	0.624069
546	H	0.690523	0.261632	0.606282
547	N	0.78379	0.218252	0.372296
548	H	0.803906	0.234654	0.390073
549	C	0.729697	0.005033	0.365279
550	C	0.713794	0.471751	0.344912
551	C	0.73075	0.4641	0.643503
552	C	0.76471	0.491256	0.63095
553	C	0.780596	0.024549	0.651288
554	C	0.763662	0.032185	0.352739
555	H	0.778021	0.487214	0.605821
556	H	0.690348	0.452754	0.357611
557	H	0.716398	0.009063	0.390439
558	H	0.80408	0.043527	0.638652
559	N	0.717312	0.431655	0.624063
560	H	0.733701	0.427939	0.606259
561	N	0.777106	0.064624	0.372197
562	H	0.760722	0.068336	0.390013
563	C	0.990324	0.223737	0.365269
564	C	0.523595	0.241097	0.344869
565	C	0.531232	0.265687	0.643444
566	C	0.504092	0.272535	0.630964
567	C	0.970816	0.255162	0.651351
568	C	0.963179	0.230574	0.352779
569	H	0.508117	0.289867	0.605808
570	H	0.54259	0.236627	0.357531
571	H	0.986297	0.206398	0.390415
572	H	0.951827	0.259641	0.638685
573	N	0.563674	0.284702	0.624
574	H	0.567389	0.304814	0.606213
575	N	0.930738	0.211568	0.372227
576	H	0.927025	0.191462	0.390027
577	C	0.674067	0.368118	0.620197
578	C	0.638193	0.341365	0.619971
579	C	0.627208	0.305001	0.620144
580	C	0.653968	0.295888	0.619968
581	C	0.690333	0.321267	0.953499
582	C	0.699457	0.357146	0.619935
583	H	0.646568	0.269922	0.622831
584	H	0.725414	0.375701	0.6229
585	H	0.619628	0.348766	0.622831
586	C	0.683614	0.404027	0.625982
587	C	0.716699	0.31173	0.959307
588	C	0.591303	0.278632	0.625916
589	O	0.750535	0.337822	0.631764
590	O	0.657523	0.411765	0.63184
591	O	0.583559	0.244796	0.631711
592	C	0.820349	0.12816	0.709381
593	C	0.856226	0.154908	0.709623
594	C	0.86721	0.191273	0.709444
595	C	0.840451	0.200391	0.70966
596	C	0.804084	0.175015	0.042815
597	C	0.794966	0.139138	0.709643
598	H	0.84785	0.226358	0.706827
599	H	0.768999	0.120577	0.70679
600	H	0.87479	0.147513	0.706701
601	C	0.810802	0.092252	0.703596
602	C	0.777711	0.18455	0.037079
603	C	0.903113	0.217643	0.703659
604	O	0.743879	0.158458	0.697917
605	O	0.836891	0.084507	0.697771
606	O	0.910852	0.251474	0.697821
607	C	0.77161	0.265663	0.698671
608	C	0.754248	0.281571	0.678264
609	C	0.729651	0.26461	0.976852
610	C	0.72281	0.230624	0.964368
611	C	0.740169	0.214715	0.984776
612	C	0.764765	0.231674	0.686194
613	H	0.705455	0.217299	0.939246
614	H	0.758739	0.305046	0.690913
615	H	0.788976	0.278993	0.723784
616	H	0.735696	0.191249	0.972116
617	N	0.710631	0.278031	0.957404
618	H	0.690523	0.261632	0.939618
619	N	0.78379	0.218252	0.705628
620	H	0.803906	0.234654	0.723405
621	C	0.729697	0.005033	0.698611
622	C	0.713794	0.471751	0.678244
623	C	0.73075	0.4641	0.976835
624	C	0.76471	0.491256	0.964285
625	C	0.780596	0.024549	0.984619
626	C	0.763662	0.032185	0.686074
627	H	0.778021	0.487214	0.939153
628	H	0.690348	0.452754	0.690943
629	H	0.716398	0.009063	0.72377
630	H	0.80408	0.043527	0.971983
631	N	0.717312	0.431655	0.957394
632	H	0.733701	0.427939	0.939594
633	N	0.777106	0.064624	0.705532
634	H	0.760722	0.068336	0.723349
635	C	0.990324	0.223737	0.698604
636	C	0.523595	0.241097	0.678204
637	C	0.531232	0.265687	0.976779
638	C	0.504092	0.272535	0.964295
639	C	0.970816	0.255162	0.984686
640	C	0.963179	0.230574	0.686111
641	H	0.508117	0.289867	0.939143
642	H	0.54259	0.236627	0.690867
643	H	0.986297	0.206398	0.723747
644	H	0.951827	0.259641	0.97202
645	N	0.563674	0.284702	0.957335
646	H	0.567389	0.304814	0.939548
647	N	0.930738	0.211568	0.705562
648	H	0.927025	0.191462	0.723359
649	C	0.674068	0.868119	0.953532
650	C	0.638193	0.841365	0.953303
651	C	0.627207	0.805001	0.953476
652	C	0.653968	0.795886	0.9533
653	C	0.690334	0.821267	0.286831
654	C	0.699456	0.857147	0.95327
655	H	0.646568	0.769922	0.956166
656	H	0.725414	0.875701	0.956235
657	H	0.619628	0.848766	0.956166
658	C	0.683613	0.904027	0.959317
659	C	0.7167	0.81173	0.29264
660	C	0.591303	0.778632	0.959251
661	O	0.750534	0.837823	0.965096
662	O	0.657522	0.911765	0.965172
663	O	0.583559	0.744797	0.965046
664	C	0.820351	0.628161	0.042712
665	C	0.856226	0.654909	0.042955
666	C	0.867209	0.691274	0.042775
667	C	0.840452	0.700392	0.042991
668	C	0.804084	0.675015	0.376149
669	C	0.794965	0.639139	0.042977
670	H	0.847851	0.726358	0.04016
671	H	0.768998	0.620579	0.040122
672	H	0.874792	0.647514	0.040034
673	C	0.810804	0.592253	0.036928
674	C	0.77771	0.68455	0.370413
675	C	0.903112	0.717643	0.036991
676	O	0.74388	0.658457	0.031249
677	O	0.83689	0.584507	0.031102
678	O	0.910851	0.751473	0.031153
679	C	0.771611	0.765664	0.032003
680	C	0.75425	0.781571	0.011597
681	C	0.72965	0.76461	0.310183
682	C	0.722811	0.730624	0.2977
683	C	0.740171	0.714717	0.318108
684	C	0.764767	0.731675	0.019527
685	H	0.705454	0.7173	0.272576
686	H	0.758738	0.805046	0.024245
687	H	0.788978	0.778993	0.057116
688	H	0.735698	0.69125	0.305449
689	N	0.710632	0.778032	0.290736
690	H	0.690521	0.761631	0.27295
691	N	0.783791	0.718254	0.038961
692	H	0.803905	0.734654	0.056738
693	C	0.729699	0.505034	0.031945
694	C	0.713795	0.971752	0.011578
695	C	0.730751	0.9641	0.310169
696	C	0.764712	0.991257	0.297617
697	C	0.780595	0.52455	0.317953
698	C	0.763663	0.532185	0.019405
699	H	0.778022	0.987214	0.272486
700	H	0.690348	0.952754	0.024277
701	H	0.7164	0.509063	0.057103
702	H	0.804078	0.543526	0.305316
703	N	0.71731	0.931653	0.290729
704	H	0.7337	0.927939	0.272925
705	N	0.777107	0.564625	0.038864
706	H	0.76072	0.568336	0.056681
707	C	0.990326	0.723737	0.031936
708	C	0.523596	0.741099	0.011536
709	C	0.531232	0.765687	0.310111
710	C	0.504092	0.772535	0.297628
711	C	0.970817	0.755163	0.318017
712	C	0.963181	0.730574	0.019445
713	H	0.508117	0.789868	0.272475
714	H	0.542589	0.736627	0.024199
715	H	0.986298	0.706399	0.057081
716	H	0.951828	0.75964	0.305352
717	N	0.563675	0.784703	0.290666
718	H	0.567391	0.804814	0.27288
719	N	0.930739	0.711569	0.038894
720	H	0.927025	0.691463	0.056692
721	C	0.674068	0.868119	0.286864
722	C	0.638193	0.841365	0.286637
723	C	0.627207	0.805001	0.28681
724	C	0.653968	0.795886	0.286633
725	C	0.690334	0.821267	0.620164
726	C	0.699456	0.857147	0.286601
727	H	0.646568	0.769922	0.289497
728	H	0.725414	0.875701	0.289567
729	H	0.619628	0.848766	0.289498
730	C	0.683613	0.904027	0.292649
731	C	0.7167	0.81173	0.625976
732	C	0.591303	0.778632	0.292584
733	O	0.750534	0.837823	0.298429
734	O	0.657522	0.911765	0.298506
735	O	0.583559	0.744797	0.298377
736	C	0.820351	0.628161	0.376046
737	C	0.856226	0.654909	0.376288
738	C	0.867209	0.691274	0.376109
739	C	0.840452	0.700392	0.376325
740	C	0.804084	0.675015	0.709484
741	C	0.794965	0.639139	0.376311
742	H	0.847851	0.726358	0.373492
743	H	0.768998	0.620579	0.373455
744	H	0.874792	0.647514	0.373369
745	C	0.810804	0.592253	0.370261
746	C	0.77771	0.68455	0.703745
747	C	0.903112	0.717643	0.370324
748	O	0.74388	0.658457	0.364582
749	O	0.83689	0.584507	0.364436
750	O	0.910851	0.751473	0.364485
751	C	0.771611	0.765664	0.365336
752	C	0.75425	0.781571	0.344932
753	C	0.72965	0.76461	0.643517
754	C	0.722811	0.730624	0.631033
755	C	0.740171	0.714717	0.651444
756	C	0.764767	0.731675	0.352862
757	H	0.705454	0.7173	0.60591
758	H	0.758738	0.805046	0.357578
759	H	0.788978	0.778993	0.390452
760	H	0.735698	0.69125	0.638784
761	N	0.710632	0.778032	0.624069
762	H	0.690521	0.761631	0.606282
763	N	0.783791	0.718254	0.372296
764	H	0.803905	0.734654	0.390073
765	C	0.729699	0.505034	0.365279
766	C	0.713795	0.971752	0.344912
767	C	0.730751	0.9641	0.643503
768	C	0.764712	0.991257	0.63095
769	C	0.780595	0.52455	0.651288
770	C	0.763663	0.532185	0.352739
771	H	0.778022	0.987214	0.605821
772	H	0.690348	0.952754	0.357611
773	H	0.7164	0.509063	0.390439
774	H	0.804078	0.543526	0.638652
775	N	0.71731	0.931653	0.624063
776	H	0.7337	0.927939	0.606259
777	N	0.777107	0.564625	0.372197
778	H	0.76072	0.568336	0.390013
779	C	0.990326	0.723737	0.365269
780	C	0.523596	0.741099	0.344869
781	C	0.531232	0.765687	0.643444
782	C	0.504092	0.772535	0.630964
783	C	0.970817	0.755163	0.651351
784	C	0.963181	0.730574	0.352779
785	H	0.508117	0.789868	0.605808
786	H	0.542589	0.736627	0.357531
787	H	0.986298	0.706399	0.390415
788	H	0.951828	0.75964	0.638685
789	N	0.563675	0.784703	0.624
790	H	0.567391	0.804814	0.606213
791	N	0.930739	0.711569	0.372227
792	H	0.927025	0.691463	0.390027
793	C	0.674068	0.868119	0.620197
794	C	0.638193	0.841365	0.619971
795	C	0.627207	0.805001	0.620144
796	C	0.653968	0.795886	0.619968
797	C	0.690334	0.821267	0.953499
798	C	0.699456	0.857147	0.619935
799	H	0.646568	0.769922	0.622831
800	H	0.725414	0.875701	0.6229
801	H	0.619628	0.848766	0.622831
802	C	0.683613	0.904027	0.625982
803	C	0.7167	0.81173	0.959307
804	C	0.591303	0.778632	0.625916
805	O	0.750534	0.837823	0.631764
806	O	0.657522	0.911765	0.63184
807	O	0.583559	0.744797	0.631711
808	C	0.820351	0.628161	0.709381
809	C	0.856226	0.654909	0.709623
810	C	0.867209	0.691274	0.709444
811	C	0.840452	0.700392	0.70966
812	C	0.804084	0.675015	0.042815
813	C	0.794965	0.639139	0.709643
814	H	0.847851	0.726358	0.706827
815	H	0.768998	0.620579	0.70679
816	H	0.874792	0.647514	0.706701
817	C	0.810804	0.592253	0.703596
818	C	0.77771	0.68455	0.037079
819	C	0.903112	0.717643	0.703659
820	O	0.74388	0.658457	0.697917
821	O	0.83689	0.584507	0.697771
822	O	0.910851	0.751473	0.697821
823	C	0.771611	0.765664	0.698671
824	C	0.75425	0.781571	0.678264
825	C	0.72965	0.76461	0.976852
826	C	0.722811	0.730624	0.964368
827	C	0.740171	0.714717	0.984776
828	C	0.764767	0.731675	0.686194
829	H	0.705454	0.7173	0.939246
830	H	0.758738	0.805046	0.690913
831	H	0.788978	0.778993	0.723784
832	H	0.735698	0.69125	0.972116
833	N	0.710632	0.778032	0.957404
834	H	0.690521	0.761631	0.939618
835	N	0.783791	0.718254	0.705628
836	H	0.803905	0.734654	0.723405
837	C	0.729699	0.505034	0.698611
838	C	0.713795	0.971752	0.678244
839	C	0.730751	0.9641	0.976835
840	C	0.764712	0.991257	0.964285
841	C	0.780595	0.52455	0.984619
842	C	0.763663	0.532185	0.686074
843	H	0.778022	0.987214	0.939153
844	H	0.690348	0.952754	0.690943
845	H	0.7164	0.509063	0.72377
846	H	0.804078	0.543526	0.971983
847	N	0.71731	0.931653	0.957394
848	H	0.7337	0.927939	0.939594
849	N	0.777107	0.564625	0.705532
850	H	0.76072	0.568336	0.723349
851	C	0.990326	0.723737	0.698604
852	C	0.523596	0.741099	0.678204
853	C	0.531232	0.765687	0.976779
854	C	0.504092	0.772535	0.964295
855	C	0.970817	0.755163	0.984686
856	C	0.963181	0.730574	0.686111
857	H	0.508117	0.789868	0.939143
858	H	0.542589	0.736627	0.690867
859	H	0.986298	0.706399	0.723747
860	H	0.951828	0.75964	0.97202
861	N	0.563675	0.784703	0.957335
862	H	0.567391	0.804814	0.939548
863	N	0.930739	0.711569	0.705562
864	H	0.927025	0.691463	0.723359
