data_C720H504N288_2018-02-15_10:35:44
#******************************************
#
# CIF file created by Zeo++
# Zeo++ is an open source package to
# analyze microporous materials
#
#*******************************************

_cell_length_a		45.7428   
_cell_length_b		45.7428   
_cell_length_c		29.8622   
_cell_angle_alpha		90   
_cell_angle_beta		90   
_cell_angle_gamma		120   

_symmetry_space_group_name_H-M		'P1'
_symmetry_Int_Tables_number		1
_symmetry_cell_setting		Monoclinic

loop_
_symmetry_equiv_pos_as_xyz
'+x,+y,+z'

loop_
_atom_site_label
_atom_site_type_symbol
_atom_site_fract_x
_atom_site_fract_y
_atom_site_fract_z
1	C	0.019209	0.259403	0.320787
2	C	0.038921	0.29545	0.31394
3	C	0.037645	0.243738	0.002597
4	H	0.026217	0.218218	0.00644
5	N	0.028095	0.311013	0.284679
6	H	0.041018	0.335067	0.278567
7	C	0.019209	0.259403	0.65412
8	C	0.038921	0.29545	0.647272
9	C	0.037645	0.243738	0.335933
10	H	0.026217	0.218218	0.339774
11	N	0.028095	0.311013	0.618011
12	H	0.041018	0.335067	0.6119
13	C	0.019209	0.259403	0.987455
14	C	0.038921	0.29545	0.980606
15	C	0.037645	0.243738	0.669263
16	H	0.026217	0.218218	0.673108
17	N	0.028095	0.311013	0.951345
18	H	0.041018	0.335067	0.945234
19	C	0.019209	0.759402	0.320787
20	C	0.038921	0.79545	0.31394
21	C	0.037646	0.743739	0.002598
22	H	0.026217	0.718218	0.00644
23	N	0.028094	0.811012	0.284679
24	H	0.041018	0.835069	0.278567
25	C	0.019209	0.759402	0.65412
26	C	0.038921	0.79545	0.647272
27	C	0.037646	0.743739	0.335933
28	H	0.026217	0.718218	0.339774
29	N	0.028094	0.811012	0.618011
30	H	0.041018	0.835069	0.6119
31	C	0.019209	0.759402	0.987455
32	C	0.038921	0.79545	0.980606
33	C	0.037646	0.743739	0.669267
34	H	0.026217	0.718218	0.673108
35	N	0.028094	0.811012	0.951345
36	H	0.041018	0.835069	0.945234
37	H	0.009644	0.297901	0.264079
38	H	0.009644	0.297901	0.597413
39	H	0.009644	0.297901	0.930747
40	H	0.009643	0.797901	0.264079
41	H	0.009643	0.797901	0.597413
42	H	0.009643	0.797901	0.930747
43	C	0.071211	0.314956	0.335095
44	C	0.071744	0.262041	0.015426
45	C	0.071211	0.314956	0.66843
46	C	0.071744	0.262041	0.348758
47	C	0.071211	0.314956	0.001764
48	C	0.071744	0.262041	0.682092
49	C	0.07121	0.814955	0.335095
50	C	0.071744	0.762043	0.015427
51	C	0.07121	0.814955	0.66843
52	C	0.071744	0.762043	0.348762
53	C	0.07121	0.814955	0.001764
54	C	0.071744	0.762043	0.682096
55	C	0.086528	0.297374	0.021158
56	C	0.09314	0.248648	0.00613
57	C	0.099553	0.229026	0.036823
58	H	0.085219	0.219512	0.065026
59	N	0.101469	0.373225	0.025778
60	C	0.093252	0.349819	0.992545
61	C	0.086528	0.297374	0.354491
62	C	0.09314	0.248648	0.339462
63	C	0.099553	0.229026	0.370156
64	H	0.085219	0.219512	0.398359
65	N	0.101469	0.373225	0.359112
66	C	0.093252	0.349819	0.325877
67	C	0.086528	0.297374	0.687825
68	C	0.09314	0.248648	0.672796
69	C	0.099553	0.229026	0.703491
70	H	0.085219	0.219512	0.731693
71	N	0.101469	0.373225	0.692446
72	C	0.093252	0.349819	0.659211
73	C	0.086529	0.797376	0.021159
74	C	0.093141	0.748649	0.00613
75	C	0.099554	0.729027	0.036823
76	H	0.085219	0.719513	0.065026
77	N	0.101469	0.873224	0.025778
78	C	0.093251	0.849819	0.992545
79	C	0.086529	0.797376	0.354491
80	C	0.093141	0.748649	0.339466
81	C	0.099554	0.729027	0.370156
82	H	0.085219	0.719513	0.398359
83	N	0.101469	0.873224	0.359112
84	C	0.093251	0.849819	0.325877
85	C	0.086529	0.797376	0.687825
86	C	0.093141	0.748649	0.672796
87	C	0.099554	0.729027	0.703491
88	H	0.085219	0.719513	0.731693
89	N	0.101469	0.873224	0.692446
90	C	0.093251	0.849819	0.659211
91	C	0.483029	0.239399	0.31457
92	C	0.463017	0.254907	0.988215
93	C	0.427618	0.237504	0.983349
94	C	0.410241	0.201553	0.984421
95	C	0.428929	0.18442	0.312097
96	C	0.464674	0.20366	0.30536
97	H	0.474296	0.280062	0.995361
98	N	0.376401	0.184358	0.994293
99	N	0.115171	0.313259	0.046476
100	N	0.480001	0.188113	0.2849
101	H	0.001649	0.201563	0.270185
102	H	0.467179	0.164764	0.275069
103	H	0.509646	0.297901	0.264079
104	H	0.122778	0.335703	0.391012
105	H	0.122655	0.300277	0.063753
106	H	0.363617	0.16022	0.331066
107	H	0.364881	0.195845	0.004978
108	C	0.263623	0.24534	0.326458
109	C	0.250719	0.211049	0.006208
110	C	0.272435	0.198217	0.014838
111	C	0.306882	0.222008	0.023205
112	C	0.321544	0.254311	0.335625
113	C	0.299061	0.26379	0.315672
114	H	0.225478	0.194792	0.009647
115	N	0.324772	0.212032	0.049606
116	C	0.24261	0.260531	0.328086
117	C	0.206344	0.242733	0.324238
118	C	0.187253	0.257058	0.342352
119	C	0.205019	0.290957	0.025034
120	C	0.239885	0.311556	0.016071
121	C	0.258224	0.295743	0.004059
122	N	0.189641	0.30473	0.049441
123	H	0.283849	0.310781	0.004574
124	N	0.310959	0.289387	0.285067
125	N	0.190176	0.213518	0.300119
126	H	0.295551	0.293231	0.266909
127	H	0.334664	0.302332	0.276917
128	H	0.165862	0.201449	0.29589
129	H	0.202754	0.206658	0.280763
130	H	0.167517	0.290384	0.395339
131	H	0.203319	0.325874	0.065145
132	H	0.346819	0.228183	0.394324
133	H	0.313314	0.19072	0.065796
134	C	0.263682	0.020776	0.323055
135	C	0.29868	0.03673	0.000886
136	C	0.317248	0.069511	0.018822
137	C	0.299486	0.086997	0.027055
138	C	0.267793	0.076052	0.338715
139	C	0.250218	0.043123	0.31899
140	H	0.310902	0.023249	0.002048
141	N	0.313018	0.114576	0.054648
142	C	0.244202	0.484422	0.319493
143	C	0.259037	0.463639	0.310929
144	C	0.243191	0.429957	0.327878
145	C	0.210009	0.415596	0.012477
146	C	0.190904	0.431709	0.005033
147	C	0.208767	0.466552	0.995421
148	N	0.196015	0.386778	0.03749
149	H	0.195426	0.478833	0.998291
150	N	0.223079	0.034617	0.291856
151	N	0.286448	0.474849	0.28343
152	H	0.215208	0.515731	0.271211
153	H	0.214097	0.049601	0.286886
154	H	0.29587	0.460713	0.275187
155	H	0.29377	0.995036	0.265395
156	H	0.20967	0.377605	0.381606
157	H	0.175779	0.380359	0.054756
158	H	0.29994	0.124963	0.397227
159	H	0.332686	0.120429	0.072859
160	C	0.144183	0.261256	0.300604
161	N	0.116474	0.264287	0.306565
162	N	0.129569	0.229436	0.033897
163	C	0.152389	0.244057	0.999915
164	H	0.161386	0.276127	0.276925
165	C	0.235732	0.37924	0.29214
166	N	0.233249	0.349342	0.302607
167	C	0.251631	0.345089	0.001767
168	C	0.274185	0.373975	0.026521
169	N	0.273398	0.403088	0.019733
170	C	0.255541	0.407515	0.98639
171	H	0.218851	0.379304	0.269726
172	H	0.286359	0.372006	0.054032
173	C	0.118091	0.35815	0.292461
174	N	0.148268	0.386887	0.296819
175	C	0.156022	0.41105	0.995311
176	C	0.130461	0.403916	0.027204
177	H	0.115947	0.340739	0.269246
178	H	0.135492	0.418448	0.055255
179	C	0.358481	0.249969	0.282105
180	N	0.384061	0.243155	0.281814
181	C	0.409626	0.255185	0.978949
182	C	0.409517	0.277114	0.012173
183	N	0.38106	0.279438	0.016399
184	C	0.354991	0.266703	0.986457
185	H	0.338839	0.236817	0.260453
186	H	0.426026	0.284702	0.038437
187	C	0.285415	0.131145	0.306544
188	N	0.286848	0.160709	0.315111
189	C	0.26353	0.164342	0.005629
190	C	0.234785	0.134158	0.019833
191	N	0.235665	0.104716	0.016842
192	C	0.260123	0.101719	0.994433
193	H	0.305462	0.131575	0.290761
194	H	0.216719	0.134839	0.039143
195	C	0.387876	0.128152	0.284316
196	N	0.358743	0.100563	0.297909
197	C	0.352005	0.088744	0.007466
198	C	0.377514	0.107429	0.039272
199	N	0.404804	0.137122	0.026544
200	C	0.411858	0.148737	0.9836
201	H	0.389041	0.136853	0.252457
202	H	0.373429	0.102009	0.07265
203	C	0.483029	0.239399	0.647902
204	C	0.463017	0.254907	0.321546
205	C	0.427618	0.237504	0.316683
206	C	0.410241	0.201553	0.317752
207	C	0.428929	0.18442	0.645431
208	C	0.464674	0.20366	0.638693
209	H	0.474296	0.280062	0.328693
210	N	0.376401	0.184358	0.327626
211	N	0.115171	0.313259	0.379811
212	N	0.480001	0.188113	0.618232
213	H	0.001649	0.201563	0.603518
214	H	0.467179	0.164764	0.608404
215	H	0.509646	0.297901	0.597413
216	H	0.122778	0.335703	0.724346
217	H	0.122655	0.300277	0.397087
218	H	0.363617	0.16022	0.664401
219	H	0.364881	0.195845	0.33831
220	C	0.263623	0.24534	0.659793
221	C	0.250719	0.211049	0.339543
222	C	0.272435	0.198217	0.348172
223	C	0.306882	0.222008	0.356537
224	C	0.321544	0.254311	0.668959
225	C	0.299061	0.26379	0.649007
226	H	0.225478	0.194792	0.342982
227	N	0.324772	0.212032	0.382942
228	C	0.24261	0.260531	0.661421
229	C	0.206344	0.242733	0.657573
230	C	0.187253	0.257058	0.675686
231	C	0.205019	0.290957	0.358369
232	C	0.239885	0.311556	0.349405
233	C	0.258224	0.295743	0.337393
234	N	0.189641	0.30473	0.382774
235	H	0.283849	0.310781	0.337908
236	N	0.310959	0.289387	0.6184
237	N	0.190176	0.213518	0.633452
238	H	0.295551	0.293231	0.600243
239	H	0.334664	0.302332	0.610252
240	H	0.165862	0.201449	0.629223
241	H	0.202754	0.206658	0.614097
242	H	0.167517	0.290384	0.728673
243	H	0.203319	0.325874	0.39848
244	H	0.346819	0.228183	0.727658
245	H	0.313314	0.19072	0.39913
246	C	0.263682	0.020776	0.656388
247	C	0.29868	0.03673	0.334218
248	C	0.317248	0.069511	0.352157
249	C	0.299486	0.086997	0.360388
250	C	0.267793	0.076052	0.672049
251	C	0.250218	0.043123	0.652322
252	H	0.310902	0.023249	0.33538
253	N	0.313018	0.114576	0.387982
254	C	0.244202	0.484422	0.652828
255	C	0.259037	0.463639	0.644262
256	C	0.243191	0.429957	0.661213
257	C	0.210009	0.415596	0.345811
258	C	0.190904	0.431709	0.338367
259	C	0.208767	0.466552	0.328755
260	N	0.196015	0.386778	0.370823
261	H	0.195426	0.478833	0.331625
262	N	0.223079	0.034617	0.625188
263	N	0.286448	0.474849	0.616762
264	H	0.215208	0.515731	0.604546
265	H	0.214097	0.049601	0.620218
266	H	0.29587	0.460713	0.608521
267	H	0.29377	0.995036	0.598729
268	H	0.20967	0.377605	0.71494
269	H	0.175779	0.380359	0.388089
270	H	0.29994	0.124963	0.730562
271	H	0.332686	0.120429	0.406192
272	C	0.144183	0.261256	0.633938
273	N	0.116474	0.264287	0.639898
274	N	0.129569	0.229436	0.36723
275	C	0.152389	0.244057	0.333246
276	H	0.161386	0.276127	0.610259
277	C	0.235732	0.37924	0.625476
278	N	0.233249	0.349342	0.63594
279	C	0.251631	0.345089	0.335099
280	C	0.274185	0.373975	0.359856
281	N	0.273398	0.403088	0.353068
282	C	0.255541	0.407515	0.319721
283	H	0.218851	0.379304	0.603059
284	H	0.286359	0.372006	0.387366
285	C	0.118091	0.35815	0.625794
286	N	0.148268	0.386887	0.630154
287	C	0.156022	0.41105	0.328643
288	C	0.130461	0.403916	0.360539
289	H	0.115947	0.340739	0.60258
290	H	0.135492	0.418448	0.388588
291	C	0.358481	0.249969	0.61544
292	N	0.384061	0.243155	0.615148
293	C	0.409626	0.255185	0.312281
294	C	0.409517	0.277114	0.345507
295	N	0.38106	0.279438	0.349733
296	C	0.354991	0.266703	0.31979
297	H	0.338839	0.236817	0.593787
298	H	0.426026	0.284702	0.371771
299	C	0.285415	0.131145	0.639878
300	N	0.286848	0.160709	0.648444
301	C	0.26353	0.164342	0.338963
302	C	0.234785	0.134158	0.353165
303	N	0.235665	0.104716	0.350175
304	C	0.260123	0.101719	0.327767
305	H	0.305462	0.131575	0.624096
306	H	0.216719	0.134839	0.372477
307	C	0.387876	0.128152	0.61765
308	N	0.358743	0.100563	0.631242
309	C	0.352005	0.088744	0.340802
310	C	0.377514	0.107429	0.372604
311	N	0.404804	0.137122	0.359876
312	C	0.411858	0.148737	0.316931
313	H	0.389041	0.136853	0.58579
314	H	0.373429	0.102009	0.405984
315	C	0.483029	0.239399	0.981236
316	C	0.463017	0.254907	0.654881
317	C	0.427618	0.237504	0.650018
318	C	0.410241	0.201553	0.651087
319	C	0.428929	0.18442	0.978765
320	C	0.464674	0.20366	0.972027
321	H	0.474296	0.280062	0.662027
322	N	0.376401	0.184358	0.660959
323	N	0.115171	0.313259	0.713145
324	N	0.480001	0.188113	0.951566
325	H	0.001649	0.201563	0.936852
326	H	0.467179	0.164764	0.941738
327	H	0.509646	0.297901	0.930747
328	H	0.122778	0.335703	0.05768
329	H	0.122655	0.300277	0.730421
330	H	0.363617	0.16022	0.997732
331	H	0.364881	0.195845	0.671644
332	C	0.263623	0.24534	0.993127
333	C	0.250719	0.211049	0.672877
334	C	0.272435	0.198217	0.681506
335	C	0.306882	0.222008	0.689871
336	C	0.321544	0.254311	0.002289
337	C	0.299061	0.26379	0.982338
338	H	0.225478	0.194792	0.676316
339	N	0.324772	0.212032	0.716273
340	C	0.24261	0.260531	0.994755
341	C	0.206344	0.242733	0.990907
342	C	0.187253	0.257058	0.009019
343	C	0.205019	0.290957	0.691703
344	C	0.239885	0.311556	0.682739
345	C	0.258224	0.295743	0.670727
346	N	0.189641	0.30473	0.716108
347	H	0.283849	0.310781	0.671242
348	N	0.310959	0.289387	0.951734
349	N	0.190176	0.213518	0.966786
350	H	0.295551	0.293231	0.933577
351	H	0.334664	0.302332	0.943586
352	H	0.165862	0.201449	0.962557
353	H	0.202754	0.206658	0.947431
354	H	0.167517	0.290384	0.062006
355	H	0.203319	0.325874	0.731814
356	H	0.346819	0.228183	0.06099
357	H	0.313314	0.19072	0.732464
358	C	0.263682	0.020776	0.989722
359	C	0.29868	0.03673	0.667552
360	C	0.317248	0.069511	0.685488
361	C	0.299486	0.086997	0.693722
362	C	0.267793	0.076052	0.005382
363	C	0.250218	0.043123	0.985656
364	H	0.310902	0.023249	0.668714
365	N	0.313018	0.114576	0.721316
366	C	0.244202	0.484422	0.986162
367	C	0.259037	0.463639	0.977596
368	C	0.243191	0.429957	0.994547
369	C	0.210009	0.415596	0.679145
370	C	0.190904	0.431709	0.671701
371	C	0.208767	0.466552	0.662087
372	N	0.196015	0.386778	0.704157
373	H	0.195426	0.478833	0.664957
374	N	0.223079	0.034617	0.958522
375	N	0.286448	0.474849	0.950096
376	H	0.215208	0.515731	0.93788
377	H	0.214097	0.049601	0.953552
378	H	0.29587	0.460713	0.941855
379	H	0.29377	0.995036	0.932063
380	H	0.20967	0.377605	0.048273
381	H	0.175779	0.380359	0.721423
382	H	0.29994	0.124963	0.063892
383	H	0.332686	0.120429	0.739526
384	C	0.144183	0.261256	0.967272
385	N	0.116474	0.264287	0.973233
386	N	0.129569	0.229436	0.700564
387	C	0.152389	0.244057	0.666581
388	H	0.161386	0.276127	0.943593
389	C	0.235732	0.37924	0.958806
390	N	0.233249	0.349342	0.969274
391	C	0.251631	0.345089	0.668433
392	C	0.274185	0.373975	0.693187
393	N	0.273398	0.403088	0.686402
394	C	0.255541	0.407515	0.653056
395	H	0.218851	0.379304	0.936393
396	H	0.286359	0.372006	0.7207
397	C	0.118091	0.35815	0.959128
398	N	0.148268	0.386887	0.963484
399	C	0.156022	0.41105	0.661977
400	C	0.130461	0.403916	0.693873
401	H	0.115947	0.340739	0.935915
402	H	0.135492	0.418448	0.721922
403	C	0.358481	0.249969	0.948774
404	N	0.384061	0.243155	0.948482
405	C	0.409626	0.255185	0.645615
406	C	0.409517	0.277114	0.678841
407	N	0.38106	0.279438	0.683067
408	C	0.354991	0.266703	0.653123
409	H	0.338839	0.236817	0.927121
410	H	0.426026	0.284702	0.705105
411	C	0.285415	0.131145	0.973212
412	N	0.286848	0.160709	0.981778
413	C	0.26353	0.164342	0.672297
414	C	0.234785	0.134158	0.686499
415	N	0.235665	0.104716	0.683509
416	C	0.260123	0.101719	0.661099
417	H	0.305462	0.131575	0.95743
418	H	0.216719	0.134839	0.705811
419	C	0.387876	0.128152	0.950984
420	N	0.358743	0.100563	0.964576
421	C	0.352005	0.088744	0.674132
422	C	0.377514	0.107429	0.705938
423	N	0.404804	0.137122	0.69321
424	C	0.411858	0.148737	0.650266
425	H	0.389041	0.136853	0.919124
426	H	0.373429	0.102009	0.739318
427	C	0.48303	0.739399	0.31457
428	C	0.463016	0.754906	0.988215
429	C	0.427619	0.737504	0.983349
430	C	0.41024	0.701552	0.984421
431	C	0.42893	0.684419	0.312097
432	C	0.464674	0.70366	0.30536
433	H	0.474294	0.780061	0.995361
434	N	0.376401	0.684359	0.994293
435	N	0.115169	0.813259	0.046477
436	N	0.480001	0.688113	0.2849
437	H	0.001649	0.701562	0.270186
438	H	0.467179	0.664765	0.275069
439	H	0.509644	0.797901	0.264079
440	H	0.122779	0.835705	0.391016
441	H	0.122654	0.800276	0.063754
442	H	0.363617	0.660219	0.331065
443	H	0.36488	0.695845	0.004977
444	C	0.263622	0.745339	0.326458
445	C	0.250718	0.711049	0.006208
446	C	0.272435	0.698217	0.014838
447	C	0.306881	0.722007	0.023204
448	C	0.321543	0.754311	0.335625
449	C	0.29906	0.76379	0.315671
450	H	0.225478	0.694792	0.009647
451	N	0.324771	0.712033	0.049606
452	C	0.24261	0.760531	0.328086
453	C	0.206344	0.742734	0.324238
454	C	0.187254	0.75706	0.342352
455	C	0.205019	0.790956	0.025034
456	C	0.239885	0.811555	0.016071
457	C	0.258225	0.795745	0.004059
458	N	0.189642	0.804732	0.049441
459	H	0.283848	0.81078	0.004574
460	N	0.310958	0.789386	0.285066
461	N	0.190175	0.713517	0.30012
462	H	0.29555	0.793231	0.266909
463	H	0.334665	0.802334	0.276917
464	H	0.165861	0.701449	0.29589
465	H	0.202754	0.706659	0.280763
466	H	0.167516	0.790383	0.395339
467	H	0.203319	0.825873	0.065146
468	H	0.346819	0.728184	0.394324
469	H	0.313314	0.69072	0.065796
470	C	0.263682	0.520775	0.323055
471	C	0.298681	0.536731	0.000886
472	C	0.317248	0.569512	0.018822
473	C	0.299488	0.586998	0.027055
474	C	0.267793	0.576052	0.338715
475	C	0.250218	0.543123	0.31899
476	H	0.310902	0.523248	0.002048
477	N	0.313017	0.614576	0.054648
478	C	0.244202	0.984421	0.319493
479	C	0.259038	0.963641	0.310928
480	C	0.24319	0.929956	0.327878
481	C	0.210011	0.915598	0.012476
482	C	0.190904	0.931708	0.005032
483	C	0.208767	0.966551	0.995421
484	N	0.196014	0.886777	0.037489
485	H	0.195427	0.978832	0.998291
486	N	0.223078	0.534616	0.291856
487	N	0.286448	0.974849	0.28343
488	H	0.215207	0.01573	0.271211
489	H	0.214097	0.549603	0.286886
490	H	0.295871	0.960715	0.275187
491	H	0.293771	0.495037	0.265395
492	H	0.209669	0.877604	0.381606
493	H	0.175779	0.880358	0.054754
494	H	0.29994	0.624964	0.397227
495	H	0.332684	0.620428	0.072859
496	C	0.144182	0.761255	0.300604
497	N	0.116474	0.764289	0.306565
498	N	0.129568	0.729436	0.033897
499	C	0.152389	0.744057	0.999915
500	H	0.161386	0.776128	0.276925
501	C	0.235733	0.87924	0.29214
502	N	0.23325	0.849344	0.302607
503	C	0.251631	0.845088	0.001767
504	C	0.274184	0.873974	0.026521
505	N	0.273398	0.903087	0.019733
506	C	0.255542	0.907517	0.986386
507	H	0.218853	0.879305	0.269725
508	H	0.28636	0.872008	0.054033
509	C	0.11809	0.858149	0.292461
510	N	0.148269	0.886886	0.296818
511	C	0.156022	0.911049	0.995311
512	C	0.13046	0.903915	0.027204
513	H	0.115948	0.840739	0.269246
514	H	0.135493	0.91845	0.055255
515	C	0.358482	0.749969	0.282105
516	N	0.384061	0.743156	0.281813
517	C	0.409624	0.755184	0.978949
518	C	0.409518	0.777115	0.012172
519	N	0.381059	0.779438	0.016398
520	C	0.354992	0.766705	0.986457
521	H	0.338838	0.736817	0.260453
522	H	0.426026	0.784701	0.038436
523	C	0.285414	0.631146	0.306544
524	N	0.286847	0.660708	0.31511
525	C	0.263531	0.664343	0.005629
526	C	0.234784	0.634158	0.019833
527	N	0.235665	0.604716	0.016842
528	C	0.260124	0.60172	0.994433
529	H	0.305461	0.631575	0.290761
530	H	0.216719	0.634839	0.039143
531	C	0.387875	0.628152	0.284316
532	N	0.358744	0.600564	0.297909
533	C	0.352006	0.588745	0.007466
534	C	0.377515	0.60743	0.039272
535	N	0.404803	0.637121	0.026544
536	C	0.411859	0.648738	0.9836
537	H	0.38904	0.636854	0.252457
538	H	0.373429	0.60201	0.07265
539	C	0.48303	0.739399	0.647902
540	C	0.463016	0.754906	0.321546
541	C	0.427619	0.737504	0.316683
542	C	0.41024	0.701552	0.317751
543	C	0.42893	0.684419	0.645431
544	C	0.464674	0.70366	0.638693
545	H	0.474294	0.780061	0.328693
546	N	0.376401	0.684359	0.327626
547	N	0.115169	0.813259	0.379811
548	N	0.480001	0.688113	0.618232
549	H	0.001649	0.701562	0.603518
550	H	0.467179	0.664765	0.608404
551	H	0.509644	0.797901	0.597413
552	H	0.122779	0.835705	0.72435
553	H	0.122654	0.800276	0.397087
554	H	0.363617	0.660219	0.664398
555	H	0.36488	0.695845	0.33831
556	C	0.263622	0.745339	0.659793
557	C	0.250718	0.711049	0.339543
558	C	0.272435	0.698217	0.348172
559	C	0.306881	0.722007	0.356537
560	C	0.321543	0.754311	0.668955
561	C	0.29906	0.76379	0.649004
562	H	0.225478	0.694792	0.342982
563	N	0.324771	0.712033	0.382939
564	C	0.24261	0.760531	0.661421
565	C	0.206344	0.742734	0.657573
566	C	0.187254	0.75706	0.675686
567	C	0.205019	0.790956	0.358369
568	C	0.239885	0.811555	0.349405
569	C	0.258225	0.795745	0.337393
570	N	0.189642	0.804732	0.382774
571	H	0.283848	0.81078	0.337908
572	N	0.310958	0.789386	0.6184
573	N	0.190175	0.713517	0.633452
574	H	0.29555	0.793231	0.600243
575	H	0.334665	0.802334	0.610249
576	H	0.165861	0.701449	0.629223
577	H	0.202754	0.706659	0.614097
578	H	0.167516	0.790383	0.728673
579	H	0.203319	0.825873	0.39848
580	H	0.346819	0.728184	0.727658
581	H	0.313314	0.69072	0.39913
582	C	0.263682	0.520775	0.656388
583	C	0.298681	0.536731	0.334218
584	C	0.317248	0.569512	0.352157
585	C	0.299488	0.586998	0.360388
586	C	0.267793	0.576052	0.672049
587	C	0.250218	0.543123	0.652322
588	H	0.310902	0.523248	0.33538
589	N	0.313017	0.614576	0.387982
590	C	0.244202	0.984421	0.652828
591	C	0.259038	0.963641	0.644262
592	C	0.24319	0.929956	0.661213
593	C	0.210011	0.915598	0.345811
594	C	0.190904	0.931708	0.338367
595	C	0.208767	0.966551	0.328755
596	N	0.196014	0.886777	0.370823
597	H	0.195427	0.978832	0.331624
598	N	0.223078	0.534616	0.625191
599	N	0.286448	0.974849	0.616762
600	H	0.215207	0.01573	0.604546
601	H	0.214097	0.549603	0.620218
602	H	0.295871	0.960715	0.608521
603	H	0.293771	0.495037	0.598729
604	H	0.209669	0.877604	0.71494
605	H	0.175779	0.880358	0.388089
606	H	0.29994	0.624964	0.730562
607	H	0.332684	0.620428	0.406192
608	C	0.144182	0.761255	0.633938
609	N	0.116474	0.764289	0.639898
610	N	0.129568	0.729436	0.36723
611	C	0.152389	0.744057	0.333247
612	H	0.161386	0.776128	0.610259
613	C	0.235733	0.87924	0.625472
614	N	0.23325	0.849344	0.63594
615	C	0.251631	0.845088	0.335099
616	C	0.274184	0.873974	0.359856
617	N	0.273398	0.903087	0.353068
618	C	0.255542	0.907517	0.31972
619	H	0.218853	0.879305	0.603059
620	H	0.28636	0.872008	0.387366
621	C	0.11809	0.858149	0.625794
622	N	0.148269	0.886886	0.630154
623	C	0.156022	0.911049	0.328643
624	C	0.13046	0.903915	0.360539
625	H	0.115948	0.840739	0.60258
626	H	0.135493	0.91845	0.388588
627	C	0.358482	0.749969	0.61544
628	N	0.384061	0.743156	0.615148
629	C	0.409624	0.755184	0.31228
630	C	0.409518	0.777115	0.345507
631	N	0.381059	0.779438	0.349733
632	C	0.354992	0.766705	0.319789
633	H	0.338838	0.736817	0.593787
634	H	0.426026	0.784701	0.371771
635	C	0.285414	0.631146	0.639878
636	N	0.286847	0.660708	0.648444
637	C	0.263531	0.664343	0.338963
638	C	0.234784	0.634158	0.353165
639	N	0.235665	0.604716	0.350175
640	C	0.260124	0.60172	0.327767
641	H	0.305461	0.631575	0.624096
642	H	0.216719	0.634839	0.372477
643	C	0.387875	0.628152	0.61765
644	N	0.358744	0.600564	0.631242
645	C	0.352006	0.588745	0.340802
646	C	0.377515	0.60743	0.372604
647	N	0.404803	0.637121	0.359876
648	C	0.411859	0.648738	0.316931
649	H	0.38904	0.636854	0.58579
650	H	0.373429	0.60201	0.405984
651	C	0.48303	0.739399	0.981236
652	C	0.463016	0.754906	0.654881
653	C	0.427619	0.737504	0.650015
654	C	0.41024	0.701552	0.651087
655	C	0.42893	0.684419	0.978765
656	C	0.464674	0.70366	0.972027
657	H	0.474294	0.780061	0.662027
658	N	0.376401	0.684359	0.660959
659	N	0.115169	0.813259	0.713145
660	N	0.480001	0.688113	0.951566
661	H	0.001649	0.701562	0.936852
662	H	0.467179	0.664765	0.941738
663	H	0.509644	0.797901	0.930747
664	H	0.122779	0.835705	0.057681
665	H	0.122654	0.800276	0.730421
666	H	0.363617	0.660219	0.997732
667	H	0.36488	0.695845	0.671644
668	C	0.263622	0.745339	0.993127
669	C	0.250718	0.711049	0.672877
670	C	0.272435	0.698217	0.681506
671	C	0.306881	0.722007	0.689871
672	C	0.321543	0.754311	0.002289
673	C	0.29906	0.76379	0.982338
674	H	0.225478	0.694792	0.676316
675	N	0.324771	0.712033	0.716273
676	C	0.24261	0.760531	0.994755
677	C	0.206344	0.742734	0.990907
678	C	0.187254	0.75706	0.009019
679	C	0.205019	0.790956	0.691703
680	C	0.239885	0.811555	0.682739
681	C	0.258225	0.795745	0.670727
682	N	0.189642	0.804732	0.716108
683	H	0.283848	0.81078	0.671242
684	N	0.310958	0.789386	0.951734
685	N	0.190175	0.713517	0.966786
686	H	0.29555	0.793231	0.933577
687	H	0.334665	0.802334	0.943583
688	H	0.165861	0.701449	0.962557
689	H	0.202754	0.706659	0.947431
690	H	0.167516	0.790383	0.062005
691	H	0.203319	0.825873	0.731814
692	H	0.346819	0.728184	0.06099
693	H	0.313314	0.69072	0.732464
694	C	0.263682	0.520775	0.989722
695	C	0.298681	0.536731	0.667552
696	C	0.317248	0.569512	0.685488
697	C	0.299488	0.586998	0.693722
698	C	0.267793	0.576052	0.005382
699	C	0.250218	0.543123	0.985656
700	H	0.310902	0.523248	0.668714
701	N	0.313017	0.614576	0.721316
702	C	0.244202	0.984421	0.986162
703	C	0.259038	0.963641	0.977596
704	C	0.24319	0.929956	0.994544
705	C	0.210011	0.915598	0.679142
706	C	0.190904	0.931708	0.671701
707	C	0.208767	0.966551	0.662087
708	N	0.196014	0.886777	0.704157
709	H	0.195427	0.978832	0.664957
710	N	0.223078	0.534616	0.958522
711	N	0.286448	0.974849	0.950096
712	H	0.215207	0.01573	0.93788
713	H	0.214097	0.549603	0.953552
714	H	0.295871	0.960715	0.941855
715	H	0.293771	0.495037	0.932063
716	H	0.209669	0.877604	0.048272
717	H	0.175779	0.880358	0.721423
718	H	0.29994	0.624964	0.063892
719	H	0.332684	0.620428	0.739526
720	C	0.144182	0.761255	0.967272
721	N	0.116474	0.764289	0.973233
722	N	0.129568	0.729436	0.700564
723	C	0.152389	0.744057	0.666581
724	H	0.161386	0.776128	0.943593
725	C	0.235733	0.87924	0.958806
726	N	0.23325	0.849344	0.969274
727	C	0.251631	0.845088	0.668433
728	C	0.274184	0.873974	0.69319
729	N	0.273398	0.903087	0.686402
730	C	0.255542	0.907517	0.653056
731	H	0.218853	0.879305	0.936393
732	H	0.28636	0.872008	0.7207
733	C	0.11809	0.858149	0.959128
734	N	0.148269	0.886886	0.963484
735	C	0.156022	0.911049	0.661977
736	C	0.13046	0.903915	0.69387
737	H	0.115948	0.840739	0.935915
738	H	0.135493	0.91845	0.721922
739	C	0.358482	0.749969	0.948774
740	N	0.384061	0.743156	0.948482
741	C	0.409624	0.755184	0.645615
742	C	0.409518	0.777115	0.678841
743	N	0.381059	0.779438	0.683067
744	C	0.354992	0.766705	0.653123
745	H	0.338838	0.736817	0.927121
746	H	0.426026	0.784701	0.705105
747	C	0.285414	0.631146	0.973212
748	N	0.286847	0.660708	0.981778
749	C	0.263531	0.664343	0.672297
750	C	0.234784	0.634158	0.686499
751	N	0.235665	0.604716	0.683509
752	C	0.260124	0.60172	0.661099
753	H	0.305461	0.631575	0.95743
754	H	0.216719	0.634839	0.705811
755	C	0.387875	0.628152	0.950984
756	N	0.358744	0.600564	0.964576
757	C	0.352006	0.588745	0.674132
758	C	0.377515	0.60743	0.705938
759	N	0.404803	0.637121	0.69321
760	C	0.411859	0.648738	0.650266
761	H	0.38904	0.636854	0.919124
762	H	0.373429	0.60201	0.739318
763	C	0.983029	0.239399	0.31457
764	C	0.963017	0.254907	0.988215
765	C	0.92762	0.237504	0.983349
766	C	0.910241	0.201553	0.984421
767	C	0.928932	0.18442	0.312097
768	C	0.964674	0.20366	0.30536
769	H	0.974296	0.280062	0.995361
770	N	0.876401	0.184358	0.994293
771	C	0.51921	0.259403	0.320787
772	C	0.538921	0.29545	0.31394
773	C	0.571211	0.314956	0.335095
774	C	0.586528	0.297374	0.021158
775	C	0.571743	0.262041	0.015426
776	C	0.537646	0.243738	0.002597
777	N	0.615172	0.313259	0.046476
778	H	0.526217	0.218218	0.00644
779	N	0.980001	0.188113	0.2849
780	N	0.528096	0.311013	0.284679
781	H	0.501649	0.201563	0.270185
782	H	0.967179	0.164764	0.275069
783	H	0.541017	0.335067	0.278567
784	H	0.622778	0.335703	0.391012
785	H	0.622656	0.300277	0.063753
786	H	0.863617	0.16022	0.331066
787	H	0.864881	0.195845	0.004978
788	C	0.763623	0.24534	0.326458
789	C	0.750719	0.211049	0.006208
790	C	0.772436	0.198217	0.014838
791	C	0.806882	0.222008	0.023205
792	C	0.821545	0.254311	0.335625
793	C	0.79906	0.26379	0.315672
794	H	0.725477	0.194792	0.009647
795	N	0.824772	0.212032	0.049606
796	C	0.742611	0.260531	0.328086
797	C	0.706344	0.242733	0.324238
798	C	0.687253	0.257058	0.342352
799	C	0.70502	0.290957	0.025034
800	C	0.739885	0.311556	0.016071
801	C	0.758223	0.295743	0.004059
802	N	0.689641	0.30473	0.049441
803	H	0.78385	0.310781	0.004574
804	N	0.81096	0.289387	0.285067
805	N	0.690175	0.213518	0.300119
806	H	0.795551	0.293231	0.266909
807	H	0.834666	0.302332	0.276917
808	H	0.665863	0.201449	0.29589
809	H	0.702754	0.206658	0.280763
810	H	0.667517	0.290384	0.395339
811	H	0.703319	0.325874	0.065145
812	H	0.846819	0.228183	0.394324
813	H	0.813314	0.19072	0.065796
814	C	0.763682	0.020776	0.323055
815	C	0.798682	0.03673	0.000886
816	C	0.817248	0.069511	0.018822
817	C	0.799489	0.086997	0.027055
818	C	0.767793	0.076052	0.338715
819	C	0.750218	0.043123	0.31899
820	H	0.810902	0.023249	0.002048
821	N	0.813018	0.114576	0.054648
822	C	0.744202	0.484422	0.319493
823	C	0.759037	0.463639	0.310929
824	C	0.74319	0.429957	0.327878
825	C	0.71001	0.415596	0.012477
826	C	0.690904	0.431709	0.005033
827	C	0.708767	0.466552	0.995421
828	N	0.696017	0.386778	0.03749
829	H	0.695427	0.478833	0.998291
830	N	0.723078	0.034617	0.291856
831	N	0.786449	0.474849	0.28343
832	H	0.715207	0.515731	0.271211
833	H	0.714096	0.049601	0.286886
834	H	0.795871	0.460713	0.275187
835	H	0.79377	0.995036	0.265395
836	H	0.709669	0.377605	0.381606
837	H	0.675779	0.380359	0.054756
838	H	0.79994	0.124963	0.397227
839	H	0.832686	0.120429	0.072859
840	C	0.644184	0.261256	0.300604
841	N	0.616473	0.264287	0.306565
842	C	0.593141	0.248648	0.00613
843	C	0.599553	0.229026	0.036823
844	N	0.629569	0.229436	0.033897
845	C	0.65239	0.244057	0.999915
846	H	0.661387	0.276127	0.276925
847	H	0.585219	0.219512	0.065026
848	C	0.735732	0.37924	0.29214
849	N	0.733249	0.349342	0.302607
850	C	0.751632	0.345089	0.001767
851	C	0.774186	0.373975	0.026521
852	N	0.773398	0.403088	0.019733
853	C	0.755541	0.407515	0.98639
854	H	0.718852	0.379304	0.269726
855	H	0.78636	0.372006	0.054032
856	C	0.618093	0.35815	0.292461
857	N	0.648269	0.386887	0.296819
858	C	0.656022	0.41105	0.995311
859	C	0.63046	0.403916	0.027204
860	N	0.601469	0.373225	0.025778
861	C	0.593253	0.349819	0.992545
862	H	0.615948	0.340739	0.269246
863	H	0.635492	0.418448	0.055255
864	C	0.858481	0.249969	0.282105
865	N	0.884061	0.243155	0.281814
866	C	0.909626	0.255185	0.978949
867	C	0.909517	0.277114	0.012173
868	N	0.88106	0.279438	0.016399
869	C	0.854993	0.266703	0.986457
870	H	0.838839	0.236817	0.260453
871	H	0.926026	0.284702	0.038437
872	C	0.785415	0.131145	0.306544
873	N	0.786848	0.160709	0.315111
874	C	0.763531	0.164342	0.005629
875	C	0.734786	0.134158	0.019833
876	N	0.735665	0.104716	0.016842
877	C	0.760123	0.101719	0.994433
878	H	0.805462	0.131575	0.290761
879	H	0.716719	0.134839	0.039143
880	C	0.887876	0.128152	0.284316
881	N	0.858743	0.100563	0.297909
882	C	0.852007	0.088744	0.007466
883	C	0.877514	0.107429	0.039272
884	N	0.904804	0.137122	0.026544
885	C	0.911858	0.148737	0.9836
886	H	0.889041	0.136853	0.252457
887	H	0.873429	0.102009	0.07265
888	C	0.983029	0.239399	0.647902
889	C	0.963017	0.254907	0.321546
890	C	0.92762	0.237504	0.316683
891	C	0.910241	0.201553	0.317752
892	C	0.928932	0.18442	0.645431
893	C	0.964674	0.20366	0.638693
894	H	0.974296	0.280062	0.328693
895	N	0.876401	0.184358	0.327626
896	C	0.51921	0.259403	0.65412
897	C	0.538921	0.29545	0.647272
898	C	0.571211	0.314956	0.66843
899	C	0.586528	0.297374	0.354491
900	C	0.571743	0.262041	0.348758
901	C	0.537646	0.243738	0.335933
902	N	0.615172	0.313259	0.379811
903	H	0.526217	0.218218	0.339774
904	N	0.980001	0.188113	0.618232
905	N	0.528096	0.311013	0.618011
906	H	0.501649	0.201563	0.603518
907	H	0.967179	0.164764	0.608404
908	H	0.541017	0.335067	0.6119
909	H	0.622778	0.335703	0.724346
910	H	0.622656	0.300277	0.397087
911	H	0.863617	0.16022	0.664401
912	H	0.864881	0.195845	0.33831
913	C	0.763623	0.24534	0.659793
914	C	0.750719	0.211049	0.339543
915	C	0.772436	0.198217	0.348172
916	C	0.806882	0.222008	0.356537
917	C	0.821545	0.254311	0.668959
918	C	0.79906	0.26379	0.649007
919	H	0.725477	0.194792	0.342982
920	N	0.824772	0.212032	0.382942
921	C	0.742611	0.260531	0.661421
922	C	0.706344	0.242733	0.657573
923	C	0.687253	0.257058	0.675686
924	C	0.70502	0.290957	0.358369
925	C	0.739885	0.311556	0.349405
926	C	0.758223	0.295743	0.337393
927	N	0.689641	0.30473	0.382774
928	H	0.78385	0.310781	0.337908
929	N	0.81096	0.289387	0.6184
930	N	0.690175	0.213518	0.633452
931	H	0.795551	0.293231	0.600243
932	H	0.834666	0.302332	0.610252
933	H	0.665863	0.201449	0.629223
934	H	0.702754	0.206658	0.614097
935	H	0.667517	0.290384	0.728673
936	H	0.703319	0.325874	0.39848
937	H	0.846819	0.228183	0.727658
938	H	0.813314	0.19072	0.39913
939	C	0.763682	0.020776	0.656388
940	C	0.798682	0.03673	0.334218
941	C	0.817248	0.069511	0.352157
942	C	0.799489	0.086997	0.360388
943	C	0.767793	0.076052	0.672049
944	C	0.750218	0.043123	0.652322
945	H	0.810902	0.023249	0.33538
946	N	0.813018	0.114576	0.387982
947	C	0.744202	0.484422	0.652828
948	C	0.759037	0.463639	0.644262
949	C	0.74319	0.429957	0.661213
950	C	0.71001	0.415596	0.345811
951	C	0.690904	0.431709	0.338367
952	C	0.708767	0.466552	0.328755
953	N	0.696017	0.386778	0.370823
954	H	0.695427	0.478833	0.331625
955	N	0.723078	0.034617	0.625188
956	N	0.786449	0.474849	0.616762
957	H	0.715207	0.515731	0.604546
958	H	0.714096	0.049601	0.620218
959	H	0.795871	0.460713	0.608521
960	H	0.79377	0.995036	0.598729
961	H	0.709669	0.377605	0.71494
962	H	0.675779	0.380359	0.388089
963	H	0.79994	0.124963	0.730562
964	H	0.832686	0.120429	0.406192
965	C	0.644184	0.261256	0.633938
966	N	0.616473	0.264287	0.639898
967	C	0.593141	0.248648	0.339462
968	C	0.599553	0.229026	0.370156
969	N	0.629569	0.229436	0.36723
970	C	0.65239	0.244057	0.333246
971	H	0.661387	0.276127	0.610259
972	H	0.585219	0.219512	0.398359
973	C	0.735732	0.37924	0.625476
974	N	0.733249	0.349342	0.63594
975	C	0.751632	0.345089	0.335099
976	C	0.774186	0.373975	0.359856
977	N	0.773398	0.403088	0.353068
978	C	0.755541	0.407515	0.319721
979	H	0.718852	0.379304	0.603059
980	H	0.78636	0.372006	0.387366
981	C	0.618093	0.35815	0.625794
982	N	0.648269	0.386887	0.630154
983	C	0.656022	0.41105	0.328643
984	C	0.63046	0.403916	0.360539
985	N	0.601469	0.373225	0.359112
986	C	0.593253	0.349819	0.325877
987	H	0.615948	0.340739	0.60258
988	H	0.635492	0.418448	0.388588
989	C	0.858481	0.249969	0.61544
990	N	0.884061	0.243155	0.615148
991	C	0.909626	0.255185	0.312281
992	C	0.909517	0.277114	0.345507
993	N	0.88106	0.279438	0.349733
994	C	0.854993	0.266703	0.31979
995	H	0.838839	0.236817	0.593787
996	H	0.926026	0.284702	0.371771
997	C	0.785415	0.131145	0.639878
998	N	0.786848	0.160709	0.648444
999	C	0.763531	0.164342	0.338963
1000	C	0.734786	0.134158	0.353165
1001	N	0.735665	0.104716	0.350175
1002	C	0.760123	0.101719	0.327767
1003	H	0.805462	0.131575	0.624096
1004	H	0.716719	0.134839	0.372477
1005	C	0.887876	0.128152	0.61765
1006	N	0.858743	0.100563	0.631242
1007	C	0.852007	0.088744	0.340802
1008	C	0.877514	0.107429	0.372604
1009	N	0.904804	0.137122	0.359876
1010	C	0.911858	0.148737	0.316931
1011	H	0.889041	0.136853	0.58579
1012	H	0.873429	0.102009	0.405984
1013	C	0.983029	0.239399	0.981236
1014	C	0.963017	0.254907	0.654881
1015	C	0.92762	0.237504	0.650018
1016	C	0.910241	0.201553	0.651087
1017	C	0.928932	0.18442	0.978765
1018	C	0.964674	0.20366	0.972027
1019	H	0.974296	0.280062	0.662027
1020	N	0.876401	0.184358	0.660959
1021	C	0.51921	0.259403	0.987455
1022	C	0.538921	0.29545	0.980606
1023	C	0.571211	0.314956	0.001764
1024	C	0.586528	0.297374	0.687825
1025	C	0.571743	0.262041	0.682092
1026	C	0.537646	0.243738	0.669263
1027	N	0.615172	0.313259	0.713145
1028	H	0.526217	0.218218	0.673108
1029	N	0.980001	0.188113	0.951566
1030	N	0.528096	0.311013	0.951345
1031	H	0.501649	0.201563	0.936852
1032	H	0.967179	0.164764	0.941738
1033	H	0.541017	0.335067	0.945234
1034	H	0.622778	0.335703	0.05768
1035	H	0.622656	0.300277	0.730421
1036	H	0.863617	0.16022	0.997732
1037	H	0.864881	0.195845	0.671644
1038	C	0.763623	0.24534	0.993127
1039	C	0.750719	0.211049	0.672877
1040	C	0.772436	0.198217	0.681506
1041	C	0.806882	0.222008	0.689871
1042	C	0.821545	0.254311	0.002289
1043	C	0.79906	0.26379	0.982338
1044	H	0.725477	0.194792	0.676316
1045	N	0.824772	0.212032	0.716273
1046	C	0.742611	0.260531	0.994755
1047	C	0.706344	0.242733	0.990907
1048	C	0.687253	0.257058	0.009019
1049	C	0.70502	0.290957	0.691703
1050	C	0.739885	0.311556	0.682739
1051	C	0.758223	0.295743	0.670727
1052	N	0.689641	0.30473	0.716108
1053	H	0.78385	0.310781	0.671242
1054	N	0.81096	0.289387	0.951734
1055	N	0.690175	0.213518	0.966786
1056	H	0.795551	0.293231	0.933577
1057	H	0.834666	0.302332	0.943586
1058	H	0.665863	0.201449	0.962557
1059	H	0.702754	0.206658	0.947431
1060	H	0.667517	0.290384	0.062006
1061	H	0.703319	0.325874	0.731814
1062	H	0.846819	0.228183	0.06099
1063	H	0.813314	0.19072	0.732464
1064	C	0.763682	0.020776	0.989722
1065	C	0.798682	0.03673	0.667552
1066	C	0.817248	0.069511	0.685488
1067	C	0.799489	0.086997	0.693722
1068	C	0.767793	0.076052	0.005382
1069	C	0.750218	0.043123	0.985656
1070	H	0.810902	0.023249	0.668714
1071	N	0.813018	0.114576	0.721316
1072	C	0.744202	0.484422	0.986162
1073	C	0.759037	0.463639	0.977596
1074	C	0.74319	0.429957	0.994547
1075	C	0.71001	0.415596	0.679145
1076	C	0.690904	0.431709	0.671701
1077	C	0.708767	0.466552	0.662087
1078	N	0.696017	0.386778	0.704157
1079	H	0.695427	0.478833	0.664957
1080	N	0.723078	0.034617	0.958522
1081	N	0.786449	0.474849	0.950096
1082	H	0.715207	0.515731	0.93788
1083	H	0.714096	0.049601	0.953552
1084	H	0.795871	0.460713	0.941855
1085	H	0.79377	0.995036	0.932063
1086	H	0.709669	0.377605	0.048273
1087	H	0.675779	0.380359	0.721423
1088	H	0.79994	0.124963	0.063892
1089	H	0.832686	0.120429	0.739526
1090	C	0.644184	0.261256	0.967272
1091	N	0.616473	0.264287	0.973233
1092	C	0.593141	0.248648	0.672796
1093	C	0.599553	0.229026	0.703491
1094	N	0.629569	0.229436	0.700564
1095	C	0.65239	0.244057	0.666581
1096	H	0.661387	0.276127	0.943593
1097	H	0.585219	0.219512	0.731693
1098	C	0.735732	0.37924	0.958806
1099	N	0.733249	0.349342	0.969274
1100	C	0.751632	0.345089	0.668433
1101	C	0.774186	0.373975	0.693187
1102	N	0.773398	0.403088	0.686402
1103	C	0.755541	0.407515	0.653056
1104	H	0.718852	0.379304	0.936393
1105	H	0.78636	0.372006	0.7207
1106	C	0.618093	0.35815	0.959128
1107	N	0.648269	0.386887	0.963484
1108	C	0.656022	0.41105	0.661977
1109	C	0.63046	0.403916	0.693873
1110	N	0.601469	0.373225	0.692446
1111	C	0.593253	0.349819	0.659211
1112	H	0.615948	0.340739	0.935915
1113	H	0.635492	0.418448	0.721922
1114	C	0.858481	0.249969	0.948774
1115	N	0.884061	0.243155	0.948482
1116	C	0.909626	0.255185	0.645615
1117	C	0.909517	0.277114	0.678841
1118	N	0.88106	0.279438	0.683067
1119	C	0.854993	0.266703	0.653123
1120	H	0.838839	0.236817	0.927121
1121	H	0.926026	0.284702	0.705105
1122	C	0.785415	0.131145	0.973212
1123	N	0.786848	0.160709	0.981778
1124	C	0.763531	0.164342	0.672297
1125	C	0.734786	0.134158	0.686499
1126	N	0.735665	0.104716	0.683509
1127	C	0.760123	0.101719	0.661099
1128	H	0.805462	0.131575	0.95743
1129	H	0.716719	0.134839	0.705811
1130	C	0.887876	0.128152	0.950984
1131	N	0.858743	0.100563	0.964576
1132	C	0.852007	0.088744	0.674132
1133	C	0.877514	0.107429	0.705938
1134	N	0.904804	0.137122	0.69321
1135	C	0.911858	0.148737	0.650266
1136	H	0.889041	0.136853	0.919124
1137	H	0.873429	0.102009	0.739318
1138	C	0.983029	0.739399	0.31457
1139	C	0.963016	0.754906	0.988215
1140	C	0.927618	0.737504	0.983349
1141	C	0.910241	0.701552	0.984421
1142	C	0.928929	0.684419	0.312097
1143	C	0.964674	0.70366	0.30536
1144	H	0.974295	0.780061	0.995361
1145	N	0.876401	0.684359	0.994293
1146	C	0.519209	0.759402	0.320787
1147	C	0.538921	0.79545	0.31394
1148	C	0.571211	0.814955	0.335095
1149	C	0.586529	0.797376	0.021159
1150	C	0.571745	0.762043	0.015427
1151	C	0.537646	0.743739	0.002598
1152	N	0.615171	0.813259	0.046477
1153	H	0.526218	0.718218	0.00644
1154	N	0.980001	0.688113	0.2849
1155	N	0.528095	0.811012	0.284679
1156	H	0.501649	0.701562	0.270186
1157	H	0.96718	0.664765	0.275069
1158	H	0.541019	0.835069	0.278567
1159	H	0.622779	0.835705	0.391016
1160	H	0.622654	0.800276	0.063754
1161	H	0.863616	0.660219	0.331065
1162	H	0.86488	0.695845	0.004977
1163	C	0.763623	0.745339	0.326458
1164	C	0.750719	0.711049	0.006208
1165	C	0.772434	0.698217	0.014838
1166	C	0.806881	0.722007	0.023204
1167	C	0.821544	0.754311	0.335625
1168	C	0.79906	0.76379	0.315671
1169	H	0.725477	0.694792	0.009647
1170	N	0.824772	0.712033	0.049606
1171	C	0.742611	0.760531	0.328086
1172	C	0.706344	0.742734	0.324238
1173	C	0.687254	0.75706	0.342352
1174	C	0.70502	0.790956	0.025034
1175	C	0.739885	0.811555	0.016071
1176	C	0.758224	0.795745	0.004059
1177	N	0.689642	0.804732	0.049441
1178	H	0.78385	0.81078	0.004574
1179	N	0.81096	0.789386	0.285066
1180	N	0.690175	0.713517	0.30012
1181	H	0.79555	0.793231	0.266909
1182	H	0.834664	0.802334	0.276917
1183	H	0.665862	0.701449	0.29589
1184	H	0.702755	0.706659	0.280763
1185	H	0.667516	0.790383	0.395339
1186	H	0.703319	0.825873	0.065146
1187	H	0.846819	0.728184	0.394324
1188	H	0.813314	0.69072	0.065796
1189	C	0.763682	0.520775	0.323055
1190	C	0.798683	0.536731	0.000886
1191	C	0.817249	0.569512	0.018822
1192	C	0.799489	0.586998	0.027055
1193	C	0.767794	0.576052	0.338715
1194	C	0.750218	0.543123	0.31899
1195	H	0.810902	0.523248	0.002048
1196	N	0.813018	0.614576	0.054648
1197	C	0.744202	0.984421	0.319493
1198	C	0.759038	0.963641	0.310928
1199	C	0.74319	0.929956	0.327878
1200	C	0.710011	0.915598	0.012476
1201	C	0.690904	0.931708	0.005032
1202	C	0.708767	0.966551	0.995421
1203	N	0.696014	0.886777	0.037489
1204	H	0.695426	0.978832	0.998291
1205	N	0.723078	0.534616	0.291856
1206	N	0.786449	0.974849	0.28343
1207	H	0.715207	0.01573	0.271211
1208	H	0.714097	0.549603	0.286886
1209	H	0.795872	0.960715	0.275187
1210	H	0.79377	0.495037	0.265395
1211	H	0.709669	0.877604	0.381606
1212	H	0.675779	0.880358	0.054754
1213	H	0.79994	0.624964	0.397227
1214	H	0.832685	0.620428	0.072859
1215	C	0.644184	0.761255	0.300604
1216	N	0.616474	0.764289	0.306565
1217	C	0.593141	0.748649	0.00613
1218	C	0.599554	0.729027	0.036823
1219	N	0.629568	0.729436	0.033897
1220	C	0.652389	0.744057	0.999915
1221	H	0.661386	0.776128	0.276925
1222	H	0.585219	0.719513	0.065026
1223	C	0.735732	0.87924	0.29214
1224	N	0.73325	0.849344	0.302607
1225	C	0.751632	0.845088	0.001767
1226	C	0.774185	0.873974	0.026521
1227	N	0.773398	0.903087	0.019733
1228	C	0.755542	0.907517	0.986386
1229	H	0.718853	0.879305	0.269725
1230	H	0.786361	0.872008	0.054033
1231	C	0.618091	0.858149	0.292461
1232	N	0.648268	0.886886	0.296818
1233	C	0.656022	0.911049	0.995311
1234	C	0.630461	0.903915	0.027204
1235	N	0.601468	0.873224	0.025778
1236	C	0.593252	0.849819	0.992545
1237	H	0.615947	0.840739	0.269246
1238	H	0.635493	0.91845	0.055255
1239	C	0.858481	0.749969	0.282105
1240	N	0.884061	0.743156	0.281813
1241	C	0.909625	0.755184	0.978949
1242	C	0.909518	0.777115	0.012172
1243	N	0.88106	0.779438	0.016398
1244	C	0.854992	0.766705	0.986457
1245	H	0.838839	0.736817	0.260453
1246	H	0.926026	0.784701	0.038436
1247	C	0.785415	0.631146	0.306544
1248	N	0.786848	0.660708	0.31511
1249	C	0.763531	0.664343	0.005629
1250	C	0.734784	0.634158	0.019833
1251	N	0.735666	0.604716	0.016842
1252	C	0.760123	0.60172	0.994433
1253	H	0.805462	0.631575	0.290761
1254	H	0.71672	0.634839	0.039143
1255	C	0.887876	0.628152	0.284316
1256	N	0.858744	0.600564	0.297909
1257	C	0.852008	0.588745	0.007466
1258	C	0.877515	0.60743	0.039272
1259	N	0.904804	0.637121	0.026544
1260	C	0.911858	0.648738	0.9836
1261	H	0.889041	0.636854	0.252457
1262	H	0.87343	0.60201	0.07265
1263	C	0.983029	0.739399	0.647902
1264	C	0.963016	0.754906	0.321546
1265	C	0.927618	0.737504	0.316683
1266	C	0.910241	0.701552	0.317751
1267	C	0.928929	0.684419	0.645431
1268	C	0.964674	0.70366	0.638693
1269	H	0.974295	0.780061	0.328693
1270	N	0.876401	0.684359	0.327626
1271	C	0.519209	0.759402	0.65412
1272	C	0.538921	0.79545	0.647272
1273	C	0.571211	0.814955	0.66843
1274	C	0.586529	0.797376	0.354491
1275	C	0.571745	0.762043	0.348762
1276	C	0.537646	0.743739	0.335933
1277	N	0.615171	0.813259	0.379811
1278	H	0.526218	0.718218	0.339774
1279	N	0.980001	0.688113	0.618232
1280	N	0.528095	0.811012	0.618011
1281	H	0.501649	0.701562	0.603518
1282	H	0.96718	0.664765	0.608404
1283	H	0.541019	0.835069	0.6119
1284	H	0.622779	0.835705	0.72435
1285	H	0.622654	0.800276	0.397087
1286	H	0.863616	0.660219	0.664398
1287	H	0.86488	0.695845	0.33831
1288	C	0.763623	0.745339	0.659793
1289	C	0.750719	0.711049	0.339543
1290	C	0.772434	0.698217	0.348172
1291	C	0.806881	0.722007	0.356537
1292	C	0.821544	0.754311	0.668955
1293	C	0.79906	0.76379	0.649004
1294	H	0.725477	0.694792	0.342982
1295	N	0.824772	0.712033	0.382939
1296	C	0.742611	0.760531	0.661421
1297	C	0.706344	0.742734	0.657573
1298	C	0.687254	0.75706	0.675686
1299	C	0.70502	0.790956	0.358369
1300	C	0.739885	0.811555	0.349405
1301	C	0.758224	0.795745	0.337393
1302	N	0.689642	0.804732	0.382774
1303	H	0.78385	0.81078	0.337908
1304	N	0.81096	0.789386	0.6184
1305	N	0.690175	0.713517	0.633452
1306	H	0.79555	0.793231	0.600243
1307	H	0.834664	0.802334	0.610249
1308	H	0.665862	0.701449	0.629223
1309	H	0.702755	0.706659	0.614097
1310	H	0.667516	0.790383	0.728673
1311	H	0.703319	0.825873	0.39848
1312	H	0.846819	0.728184	0.727658
1313	H	0.813314	0.69072	0.39913
1314	C	0.763682	0.520775	0.656388
1315	C	0.798683	0.536731	0.334218
1316	C	0.817249	0.569512	0.352157
1317	C	0.799489	0.586998	0.360388
1318	C	0.767794	0.576052	0.672049
1319	C	0.750218	0.543123	0.652322
1320	H	0.810902	0.523248	0.33538
1321	N	0.813018	0.614576	0.387982
1322	C	0.744202	0.984421	0.652828
1323	C	0.759038	0.963641	0.644262
1324	C	0.74319	0.929956	0.661213
1325	C	0.710011	0.915598	0.345811
1326	C	0.690904	0.931708	0.338367
1327	C	0.708767	0.966551	0.328755
1328	N	0.696014	0.886777	0.370823
1329	H	0.695426	0.978832	0.331624
1330	N	0.723078	0.534616	0.625191
1331	N	0.786449	0.974849	0.616762
1332	H	0.715207	0.01573	0.604546
1333	H	0.714097	0.549603	0.620218
1334	H	0.795872	0.960715	0.608521
1335	H	0.79377	0.495037	0.598729
1336	H	0.709669	0.877604	0.71494
1337	H	0.675779	0.880358	0.388089
1338	H	0.79994	0.624964	0.730562
1339	H	0.832685	0.620428	0.406192
1340	C	0.644184	0.761255	0.633938
1341	N	0.616474	0.764289	0.639898
1342	C	0.593141	0.748649	0.339466
1343	C	0.599554	0.729027	0.370156
1344	N	0.629568	0.729436	0.36723
1345	C	0.652389	0.744057	0.333247
1346	H	0.661386	0.776128	0.610259
1347	H	0.585219	0.719513	0.398359
1348	C	0.735732	0.87924	0.625472
1349	N	0.73325	0.849344	0.63594
1350	C	0.751632	0.845088	0.335099
1351	C	0.774185	0.873974	0.359856
1352	N	0.773398	0.903087	0.353068
1353	C	0.755542	0.907517	0.31972
1354	H	0.718853	0.879305	0.603059
1355	H	0.786361	0.872008	0.387366
1356	C	0.618091	0.858149	0.625794
1357	N	0.648268	0.886886	0.630154
1358	C	0.656022	0.911049	0.328643
1359	C	0.630461	0.903915	0.360539
1360	N	0.601468	0.873224	0.359112
1361	C	0.593252	0.849819	0.325877
1362	H	0.615947	0.840739	0.60258
1363	H	0.635493	0.91845	0.388588
1364	C	0.858481	0.749969	0.61544
1365	N	0.884061	0.743156	0.615148
1366	C	0.909625	0.755184	0.31228
1367	C	0.909518	0.777115	0.345507
1368	N	0.88106	0.779438	0.349733
1369	C	0.854992	0.766705	0.319789
1370	H	0.838839	0.736817	0.593787
1371	H	0.926026	0.784701	0.371771
1372	C	0.785415	0.631146	0.639878
1373	N	0.786848	0.660708	0.648444
1374	C	0.763531	0.664343	0.338963
1375	C	0.734784	0.634158	0.353165
1376	N	0.735666	0.604716	0.350175
1377	C	0.760123	0.60172	0.327767
1378	H	0.805462	0.631575	0.624096
1379	H	0.71672	0.634839	0.372477
1380	C	0.887876	0.628152	0.61765
1381	N	0.858744	0.600564	0.631242
1382	C	0.852008	0.588745	0.340802
1383	C	0.877515	0.60743	0.372604
1384	N	0.904804	0.637121	0.359876
1385	C	0.911858	0.648738	0.316931
1386	H	0.889041	0.636854	0.58579
1387	H	0.87343	0.60201	0.405984
1388	C	0.983029	0.739399	0.981236
1389	C	0.963016	0.754906	0.654881
1390	C	0.927618	0.737504	0.650015
1391	C	0.910241	0.701552	0.651087
1392	C	0.928929	0.684419	0.978765
1393	C	0.964674	0.70366	0.972027
1394	H	0.974295	0.780061	0.662027
1395	N	0.876401	0.684359	0.660959
1396	C	0.519209	0.759402	0.987455
1397	C	0.538921	0.79545	0.980606
1398	C	0.571211	0.814955	0.001764
1399	C	0.586529	0.797376	0.687825
1400	C	0.571745	0.762043	0.682096
1401	C	0.537646	0.743739	0.669267
1402	N	0.615171	0.813259	0.713145
1403	H	0.526218	0.718218	0.673108
1404	N	0.980001	0.688113	0.951566
1405	N	0.528095	0.811012	0.951345
1406	H	0.501649	0.701562	0.936852
1407	H	0.96718	0.664765	0.941738
1408	H	0.541019	0.835069	0.945234
1409	H	0.622779	0.835705	0.057681
1410	H	0.622654	0.800276	0.730421
1411	H	0.863616	0.660219	0.997732
1412	H	0.86488	0.695845	0.671644
1413	C	0.763623	0.745339	0.993127
1414	C	0.750719	0.711049	0.672877
1415	C	0.772434	0.698217	0.681506
1416	C	0.806881	0.722007	0.689871
1417	C	0.821544	0.754311	0.002289
1418	C	0.79906	0.76379	0.982338
1419	H	0.725477	0.694792	0.676316
1420	N	0.824772	0.712033	0.716273
1421	C	0.742611	0.760531	0.994755
1422	C	0.706344	0.742734	0.990907
1423	C	0.687254	0.75706	0.009019
1424	C	0.70502	0.790956	0.691703
1425	C	0.739885	0.811555	0.682739
1426	C	0.758224	0.795745	0.670727
1427	N	0.689642	0.804732	0.716108
1428	H	0.78385	0.81078	0.671242
1429	N	0.81096	0.789386	0.951734
1430	N	0.690175	0.713517	0.966786
1431	H	0.79555	0.793231	0.933577
1432	H	0.834664	0.802334	0.943583
1433	H	0.665862	0.701449	0.962557
1434	H	0.702755	0.706659	0.947431
1435	H	0.667516	0.790383	0.062005
1436	H	0.703319	0.825873	0.731814
1437	H	0.846819	0.728184	0.06099
1438	H	0.813314	0.69072	0.732464
1439	C	0.763682	0.520775	0.989722
1440	C	0.798683	0.536731	0.667552
1441	C	0.817249	0.569512	0.685488
1442	C	0.799489	0.586998	0.693722
1443	C	0.767794	0.576052	0.005382
1444	C	0.750218	0.543123	0.985656
1445	H	0.810902	0.523248	0.668714
1446	N	0.813018	0.614576	0.721316
1447	C	0.744202	0.984421	0.986162
1448	C	0.759038	0.963641	0.977596
1449	C	0.74319	0.929956	0.994544
1450	C	0.710011	0.915598	0.679142
1451	C	0.690904	0.931708	0.671701
1452	C	0.708767	0.966551	0.662087
1453	N	0.696014	0.886777	0.704157
1454	H	0.695426	0.978832	0.664957
1455	N	0.723078	0.534616	0.958522
1456	N	0.786449	0.974849	0.950096
1457	H	0.715207	0.01573	0.93788
1458	H	0.714097	0.549603	0.953552
1459	H	0.795872	0.960715	0.941855
1460	H	0.79377	0.495037	0.932063
1461	H	0.709669	0.877604	0.048272
1462	H	0.675779	0.880358	0.721423
1463	H	0.79994	0.624964	0.063892
1464	H	0.832685	0.620428	0.739526
1465	C	0.644184	0.761255	0.967272
1466	N	0.616474	0.764289	0.973233
1467	C	0.593141	0.748649	0.672796
1468	C	0.599554	0.729027	0.703491
1469	N	0.629568	0.729436	0.700564
1470	C	0.652389	0.744057	0.666581
1471	H	0.661386	0.776128	0.943593
1472	H	0.585219	0.719513	0.731693
1473	C	0.735732	0.87924	0.958806
1474	N	0.73325	0.849344	0.969274
1475	C	0.751632	0.845088	0.668433
1476	C	0.774185	0.873974	0.69319
1477	N	0.773398	0.903087	0.686402
1478	C	0.755542	0.907517	0.653056
1479	H	0.718853	0.879305	0.936393
1480	H	0.786361	0.872008	0.7207
1481	C	0.618091	0.858149	0.959128
1482	N	0.648268	0.886886	0.963484
1483	C	0.656022	0.911049	0.661977
1484	C	0.630461	0.903915	0.69387
1485	N	0.601468	0.873224	0.692446
1486	C	0.593252	0.849819	0.659211
1487	H	0.615947	0.840739	0.935915
1488	H	0.635493	0.91845	0.721922
1489	C	0.858481	0.749969	0.948774
1490	N	0.884061	0.743156	0.948482
1491	C	0.909625	0.755184	0.645615
1492	C	0.909518	0.777115	0.678841
1493	N	0.88106	0.779438	0.683067
1494	C	0.854992	0.766705	0.653123
1495	H	0.838839	0.736817	0.927121
1496	H	0.926026	0.784701	0.705105
1497	C	0.785415	0.631146	0.973212
1498	N	0.786848	0.660708	0.981778
1499	C	0.763531	0.664343	0.672297
1500	C	0.734784	0.634158	0.686499
1501	N	0.735666	0.604716	0.683509
1502	C	0.760123	0.60172	0.661099
1503	H	0.805462	0.631575	0.95743
1504	H	0.71672	0.634839	0.705811
1505	C	0.887876	0.628152	0.950984
1506	N	0.858744	0.600564	0.964576
1507	C	0.852008	0.588745	0.674132
1508	C	0.877515	0.60743	0.705938
1509	N	0.904804	0.637121	0.69321
1510	C	0.911858	0.648738	0.650266
1511	H	0.889041	0.636854	0.919124
1512	H	0.87343	0.60201	0.739318
