data_C576H360N24O24_2018-02-15_10:35:38
#******************************************
#
# CIF file created by Zeo++
# Zeo++ is an open source package to
# analyze microporous materials
#
#*******************************************

_cell_length_a		43.3701   
_cell_length_b		25.075   
_cell_length_c		28.988   
_cell_angle_alpha		91.9112   
_cell_angle_beta		88.8952   
_cell_angle_gamma		90.0457   

_symmetry_space_group_name_H-M		'P1'
_symmetry_Int_Tables_number		1
_symmetry_cell_setting		Triclinic

loop_
_symmetry_equiv_pos_as_xyz
'+x,+y,+z'

loop_
_atom_site_label
_atom_site_type_symbol
_atom_site_fract_x
_atom_site_fract_y
_atom_site_fract_z
1	C	0.038576	0.017677	0.019817
2	C	0.089682	0.066991	0.016572
3	C	0.056795	0.065059	0.017617
4	C	0.504229	0.017927	0.019877
5	C	0.437586	0.018386	0.017905
6	C	0.453491	0.068159	0.021636
7	C	0.48633	0.065766	0.022025
8	H	0.497391	0.101154	0.027213
9	C	0.139562	0.218992	0.019488
10	C	0.10589	0.117185	0.015864
11	C	0.094115	0.163289	0.039886
12	C	0.110481	0.211964	0.042024
13	H	0.101184	0.242424	0.062087
14	H	0.074071	0.161252	0.058937
15	C	0.40355	0.219769	0.021622
16	C	0.437436	0.118466	0.023478
17	C	0.408036	0.126185	0.045341
18	C	0.391392	0.17443	0.043597
19	H	0.37077	0.177104	0.061227
20	H	0.398672	0.097137	0.065133
21	H	0.04586	0.100366	0.013455
22	C	0.538575	0.017677	0.019817
23	C	0.589682	0.066991	0.016572
24	C	0.556795	0.065059	0.017617
25	C	0.00423	0.017927	0.019877
26	C	0.937587	0.018386	0.017905
27	C	0.95349	0.068159	0.021636
28	C	0.986329	0.065766	0.022025
29	H	0.997392	0.101154	0.027213
30	C	0.639562	0.218992	0.019488
31	C	0.605889	0.117185	0.015864
32	C	0.594114	0.163289	0.039886
33	C	0.610482	0.211964	0.042024
34	H	0.601182	0.242424	0.062087
35	H	0.57407	0.161252	0.058937
36	C	0.903551	0.219769	0.021622
37	C	0.937435	0.118466	0.023478
38	C	0.908037	0.126185	0.045341
39	C	0.891393	0.17443	0.043597
40	H	0.870768	0.177104	0.061227
41	H	0.89867	0.097137	0.065133
42	H	0.545859	0.100366	0.013455
43	N	0.15503	0.267657	0.020662
44	C	0.187469	0.267902	0.020617
45	C	0.254636	0.268102	0.020546
46	C	0.236807	0.251715	0.059174
47	C	0.204153	0.250956	0.059001
48	H	0.247588	0.238731	0.087804
49	H	0.192395	0.238472	0.087607
50	N	0.387759	0.268032	0.020587
51	C	0.355322	0.267906	0.020574
52	C	0.288159	0.268094	0.020518
53	N	0.65503	0.267657	0.020662
54	C	0.687467	0.267902	0.020617
55	C	0.754637	0.268102	0.020546
56	C	0.736808	0.251715	0.059174
57	C	0.704152	0.250956	0.059001
58	H	0.747589	0.238731	0.087804
59	H	0.692394	0.238472	0.087607
60	N	0.887758	0.268032	0.020587
61	C	0.855323	0.267906	0.020574
62	C	0.788158	0.268094	0.020518
63	C	0.30503	0.28724	0.059182
64	C	0.33769	0.28778	0.059011
65	C	0.805031	0.28724	0.059182
66	C	0.837689	0.28778	0.059011
67	C	0.056407	0.469995	0.021968
68	C	0.089249	0.467541	0.021403
69	C	0.105264	0.516986	0.017516
70	H	0.045216	0.435015	0.027216
71	C	0.486077	0.470362	0.017729
72	C	0.453221	0.468335	0.016835
73	C	0.139175	0.315962	0.02166
74	C	0.105241	0.417382	0.023325
75	C	0.134083	0.411436	0.045183
76	C	0.150745	0.363036	0.043595
77	H	0.170918	0.361791	0.061225
78	H	0.142921	0.442064	0.064936
79	C	0.403293	0.316568	0.019443
80	C	0.437058	0.418074	0.016037
81	C	0.448205	0.373783	0.040014
82	C	0.431772	0.325277	0.042056
83	H	0.44052	0.296336	0.062124
84	H	0.467732	0.377295	0.059123
85	H	0.293539	0.302315	0.087882
86	H	0.348741	0.302286	0.087656
87	H	0.497117	0.434736	0.013531
88	C	0.038574	0.517677	0.019815
89	C	0.056409	0.969996	0.02197
90	C	0.089251	0.967541	0.021403
91	C	0.105266	0.016986	0.017516
92	C	0.08968	0.566993	0.016572
93	C	0.056792	0.565058	0.017617
94	H	0.045218	0.935015	0.027219
95	C	0.504226	0.517927	0.019876
96	C	0.486079	0.970363	0.01773
97	C	0.453223	0.968335	0.016835
98	C	0.437584	0.518385	0.017904
99	C	0.453489	0.56816	0.021634
100	C	0.486328	0.565766	0.022022
101	H	0.497389	0.601152	0.02721
102	N	0.15503	0.767656	0.020663
103	C	0.139561	0.718993	0.019489
104	C	0.187469	0.767897	0.020617
105	C	0.139176	0.815962	0.021661
106	C	0.105243	0.917378	0.023325
107	C	0.134085	0.911436	0.045183
108	C	0.150747	0.863036	0.043595
109	C	0.105888	0.617183	0.015864
110	C	0.094114	0.663288	0.039887
111	C	0.11048	0.711965	0.042025
112	C	0.254636	0.768102	0.020546
113	C	0.236807	0.751712	0.059174
114	C	0.204154	0.750952	0.059001
115	H	0.101184	0.742425	0.062088
116	H	0.07407	0.661251	0.058937
117	H	0.24759	0.73873	0.087804
118	H	0.192396	0.738471	0.087607
119	H	0.170919	0.861789	0.061224
120	H	0.142924	0.942064	0.064934
121	N	0.387759	0.768032	0.020587
122	C	0.403295	0.81657	0.019443
123	C	0.355322	0.767908	0.020574
124	C	0.40355	0.719769	0.021622
125	C	0.437434	0.618464	0.023476
126	C	0.408036	0.626186	0.04534
127	C	0.391392	0.67443	0.043596
128	C	0.437058	0.918075	0.016037
129	C	0.448205	0.873782	0.040013
130	C	0.431774	0.825278	0.042056
131	C	0.288159	0.768093	0.020518
132	C	0.30503	0.787242	0.059182
133	C	0.33769	0.787782	0.059011
134	H	0.44052	0.796336	0.062123
135	H	0.467735	0.877294	0.059122
136	H	0.293539	0.802314	0.087882
137	H	0.348741	0.80229	0.087656
138	H	0.37077	0.677107	0.061227
139	H	0.398669	0.597138	0.065131
140	H	0.045858	0.600364	0.013455
141	H	0.497119	0.934736	0.013531
142	C	0.556407	0.469995	0.021968
143	C	0.589249	0.467541	0.021403
144	C	0.605264	0.516986	0.017516
145	H	0.545216	0.435015	0.027216
146	C	0.986078	0.470362	0.017729
147	C	0.953219	0.468335	0.016835
148	C	0.639176	0.315962	0.02166
149	C	0.605242	0.417382	0.023325
150	C	0.634081	0.411436	0.045183
151	C	0.650745	0.363036	0.043595
152	H	0.670916	0.361791	0.061225
153	H	0.642921	0.442064	0.064936
154	C	0.903294	0.316568	0.019443
155	C	0.937057	0.418074	0.016037
156	C	0.948204	0.373783	0.040014
157	C	0.931773	0.325277	0.042056
158	H	0.940519	0.296336	0.062124
159	H	0.967731	0.377295	0.059123
160	H	0.79354	0.302315	0.087882
161	H	0.84874	0.302286	0.087656
162	H	0.997118	0.434736	0.013531
163	C	0.538573	0.517677	0.019815
164	C	0.556409	0.969996	0.02197
165	C	0.589251	0.967541	0.021403
166	C	0.605266	0.016986	0.017516
167	C	0.589679	0.566993	0.016572
168	C	0.556793	0.565058	0.017617
169	H	0.545219	0.935015	0.027219
170	C	0.004227	0.517927	0.019876
171	C	0.98608	0.970363	0.01773
172	C	0.953222	0.968335	0.016835
173	C	0.937585	0.518385	0.017904
174	C	0.953488	0.56816	0.021634
175	C	0.986327	0.565766	0.022022
176	H	0.99739	0.601152	0.02721
177	N	0.65503	0.767656	0.020663
178	C	0.63956	0.718993	0.019489
179	C	0.687467	0.767897	0.020617
180	C	0.639176	0.815962	0.021661
181	C	0.605242	0.917378	0.023325
182	C	0.634084	0.911436	0.045183
183	C	0.650745	0.863036	0.043595
184	C	0.605889	0.617183	0.015864
185	C	0.594114	0.663288	0.039887
186	C	0.610479	0.711965	0.042025
187	C	0.754637	0.768102	0.020546
188	C	0.736808	0.751712	0.059174
189	C	0.704154	0.750952	0.059001
190	H	0.601182	0.742425	0.062088
191	H	0.57407	0.661251	0.058937
192	H	0.747589	0.73873	0.087804
193	H	0.692396	0.738471	0.087607
194	H	0.670919	0.861789	0.061224
195	H	0.642923	0.942064	0.064934
196	N	0.887758	0.768032	0.020587
197	C	0.903294	0.81657	0.019443
198	C	0.855323	0.767908	0.020574
199	C	0.903549	0.719769	0.021622
200	C	0.937432	0.618464	0.023476
201	C	0.908035	0.626186	0.04534
202	C	0.891391	0.67443	0.043596
203	C	0.93706	0.918075	0.016037
204	C	0.948206	0.873782	0.040013
205	C	0.931773	0.825278	0.042056
206	C	0.788158	0.768093	0.020518
207	C	0.805028	0.787242	0.059182
208	C	0.837689	0.787782	0.059011
209	H	0.940519	0.796336	0.062123
210	H	0.967733	0.877294	0.059122
211	H	0.79354	0.802314	0.087882
212	H	0.84874	0.80229	0.087656
213	H	0.870768	0.677107	0.061227
214	H	0.898668	0.597138	0.065131
215	H	0.545857	0.600364	0.013455
216	H	0.997118	0.934736	0.013531
217	O	0.40618	0.018349	0.016627
218	H	0.045675	0.100955	0.346832
219	C	0.151557	0.172876	0.995938
220	C	0.134988	0.124408	0.993366
221	H	0.143953	0.0952	0.971782
222	H	0.171784	0.175201	0.977382
223	C	0.433058	0.212185	5.3e-05
224	C	0.449571	0.163804	0.001431
225	H	0.442548	0.241811	0.980965
226	H	0.469909	0.161163	0.983023
227	C	0.03839	0.018258	0.35317
228	C	0.089489	0.067581	0.349994
229	C	0.056605	0.065646	0.351006
230	C	0.504045	0.018517	0.353174
231	C	0.437409	0.019017	0.351002
232	C	0.453323	0.068773	0.354828
233	C	0.486156	0.066366	0.355301
234	O	0.406008	0.019051	0.349511
235	H	0.497214	0.101748	0.360541
236	H	0.045675	0.100955	0.680162
237	C	0.139361	0.219564	0.352787
238	C	0.151329	0.173448	0.329206
239	C	0.134759	0.124984	0.32668
240	C	0.105688	0.117777	0.349259
241	C	0.093928	0.163885	0.373287
242	C	0.110298	0.212557	0.375379
243	H	0.1437	0.095758	0.305091
244	H	0.171538	0.175767	0.310605
245	H	0.101022	0.243026	0.395457
246	H	0.0739	0.161848	0.392374
247	C	0.403384	0.22038	0.354976
248	C	0.432897	0.21284	0.333412
249	C	0.449415	0.164461	0.334738
250	C	0.437274	0.119082	0.356713
251	C	0.407876	0.126753	0.378583
252	C	0.391233	0.175003	0.376905
253	H	0.442384	0.242495	0.314352
254	H	0.469757	0.16185	0.316341
255	H	0.370606	0.177639	0.394529
256	H	0.398508	0.097656	0.398319
257	C	0.03839	0.018258	0.686504
258	C	0.089489	0.067581	0.683328
259	C	0.056605	0.065647	0.68434
260	C	0.504044	0.018517	0.686508
261	C	0.437409	0.019017	0.684336
262	C	0.453322	0.068773	0.688161
263	C	0.486156	0.066366	0.688634
264	O	0.406008	0.019051	0.682845
265	H	0.497214	0.101748	0.693875
266	C	0.139361	0.219564	0.686121
267	C	0.151329	0.173448	0.662539
268	C	0.134759	0.124984	0.660015
269	C	0.105688	0.117776	0.682593
270	C	0.093928	0.163885	0.706621
271	C	0.110298	0.212557	0.708713
272	H	0.1437	0.095758	0.638425
273	H	0.171538	0.175767	0.643938
274	H	0.101022	0.243026	0.728791
275	H	0.0739	0.161848	0.725708
276	C	0.403384	0.22038	0.68831
277	C	0.432897	0.212841	0.666747
278	C	0.449415	0.164461	0.668073
279	C	0.437273	0.119082	0.690046
280	C	0.407876	0.126753	0.711916
281	C	0.391233	0.175003	0.710239
282	H	0.442384	0.242495	0.647687
283	H	0.469759	0.16185	0.649675
284	H	0.370606	0.177639	0.727862
285	H	0.398508	0.097656	0.731653
286	H	0.400534	0.031394	0.986237
287	H	0.400472	0.032074	0.319064
288	H	0.400472	0.032074	0.652396
289	O	0.906178	0.018349	0.016627
290	H	0.545675	0.100955	0.346832
291	C	0.651557	0.172876	0.995938
292	C	0.634987	0.124408	0.993366
293	H	0.643952	0.0952	0.971782
294	H	0.671783	0.175201	0.977382
295	C	0.933057	0.212185	5.3e-05
296	C	0.94957	0.163804	0.001431
297	H	0.942547	0.241811	0.980965
298	H	0.969907	0.161163	0.983023
299	C	0.538391	0.018258	0.35317
300	C	0.58949	0.067581	0.349994
301	C	0.556605	0.065646	0.351006
302	C	0.004043	0.018517	0.353174
303	C	0.937408	0.019017	0.351002
304	C	0.953321	0.068773	0.354828
305	C	0.986155	0.066366	0.355301
306	O	0.906009	0.019051	0.349511
307	H	0.997215	0.101748	0.360541
308	H	0.545674	0.100955	0.680162
309	C	0.63936	0.219564	0.352787
310	C	0.651328	0.173448	0.329206
311	C	0.634758	0.124984	0.32668
312	C	0.605688	0.117777	0.349259
313	C	0.593928	0.163885	0.373287
314	C	0.610297	0.212557	0.375379
315	H	0.643699	0.095758	0.305091
316	H	0.671539	0.175767	0.310605
317	H	0.601023	0.243026	0.395457
318	H	0.573898	0.161848	0.392374
319	C	0.903385	0.22038	0.354976
320	C	0.932898	0.21284	0.333412
321	C	0.949416	0.164461	0.334738
322	C	0.937272	0.119082	0.356713
323	C	0.907875	0.126753	0.378583
324	C	0.891232	0.175003	0.376905
325	H	0.942383	0.242495	0.314352
326	H	0.969758	0.16185	0.316341
327	H	0.870605	0.177639	0.394529
328	H	0.898506	0.097656	0.398319
329	C	0.538391	0.018258	0.686504
330	C	0.589489	0.067581	0.683328
331	C	0.556605	0.065647	0.68434
332	C	0.004043	0.018517	0.686508
333	C	0.937408	0.019017	0.684336
334	C	0.953321	0.068773	0.688161
335	C	0.986155	0.066366	0.688634
336	O	0.906009	0.019051	0.682845
337	H	0.997215	0.101748	0.693875
338	C	0.63936	0.219564	0.686121
339	C	0.651328	0.173448	0.662539
340	C	0.634757	0.124984	0.660015
341	C	0.605688	0.117776	0.682593
342	C	0.593928	0.163885	0.706621
343	C	0.610297	0.212557	0.708713
344	H	0.643701	0.095758	0.638425
345	H	0.671539	0.175767	0.643938
346	H	0.601023	0.243026	0.728791
347	H	0.5739	0.161848	0.725708
348	C	0.903385	0.22038	0.68831
349	C	0.932898	0.212841	0.666747
350	C	0.949416	0.164461	0.668073
351	C	0.937274	0.119082	0.690046
352	C	0.907875	0.126753	0.711916
353	C	0.891232	0.175003	0.710239
354	H	0.942383	0.242495	0.647687
355	H	0.969758	0.16185	0.649675
356	H	0.870605	0.177639	0.727862
357	H	0.898506	0.097656	0.731653
358	H	0.900533	0.031394	0.986237
359	H	0.900471	0.032074	0.319064
360	H	0.90047	0.032074	0.652396
361	C	0.338661	0.248159	0.982091
362	C	0.306003	0.24887	0.981873
363	H	0.350436	0.233659	0.953447
364	H	0.29523	0.233874	0.953154
365	N	0.154845	0.26821	0.353944
366	C	0.187283	0.268398	0.353916
367	C	0.254451	0.268415	0.353861
368	C	0.236603	0.252049	0.392475
369	C	0.203948	0.251378	0.392295
370	H	0.247369	0.239036	0.421108
371	H	0.192175	0.23891	0.420894
372	N	0.387572	0.268624	0.353965
373	C	0.355135	0.268433	0.353933
374	C	0.338495	0.248626	0.315448
375	C	0.305837	0.249237	0.315221
376	C	0.287972	0.268413	0.353861
377	H	0.350289	0.23416	0.286804
378	H	0.29508	0.234222	0.286494
379	N	0.154845	0.26821	0.687278
380	C	0.187284	0.268398	0.68725
381	C	0.254451	0.268414	0.687195
382	C	0.236602	0.252049	0.725808
383	C	0.203948	0.251378	0.725629
384	H	0.247369	0.239036	0.754441
385	H	0.192175	0.23891	0.754227
386	N	0.387572	0.268623	0.687298
387	C	0.355135	0.268433	0.687264
388	C	0.338495	0.248626	0.648781
389	C	0.305837	0.249237	0.648553
390	C	0.287972	0.268414	0.687195
391	H	0.350289	0.23416	0.620138
392	H	0.29508	0.234222	0.619827
393	C	0.838659	0.248159	0.982091
394	C	0.806002	0.24887	0.981873
395	H	0.850438	0.233659	0.953447
396	H	0.795228	0.233874	0.953154
397	N	0.654844	0.26821	0.353944
398	C	0.687283	0.268398	0.353916
399	C	0.75445	0.268415	0.353861
400	C	0.736601	0.252049	0.392475
401	C	0.703947	0.251378	0.392295
402	H	0.747368	0.239036	0.421108
403	H	0.692173	0.23891	0.420894
404	N	0.887571	0.268624	0.353965
405	C	0.855134	0.268433	0.353933
406	C	0.838496	0.248626	0.315448
407	C	0.805836	0.249237	0.315221
408	C	0.787971	0.268413	0.353861
409	H	0.850288	0.23416	0.286804
410	H	0.795079	0.234222	0.286494
411	N	0.654843	0.26821	0.687278
412	C	0.687283	0.268398	0.68725
413	C	0.75445	0.268414	0.687195
414	C	0.736601	0.252049	0.725808
415	C	0.703947	0.251378	0.725629
416	H	0.747367	0.239036	0.754441
417	H	0.692173	0.23891	0.754227
418	N	0.88757	0.268623	0.687298
419	C	0.855136	0.268433	0.687264
420	C	0.838496	0.248626	0.648781
421	C	0.805836	0.249237	0.648553
422	C	0.787971	0.268414	0.687195
423	H	0.850288	0.23416	0.620138
424	H	0.795079	0.234222	0.619827
425	C	0.205083	0.28499	0.982205
426	C	0.237748	0.284451	0.981974
427	H	0.194015	0.297358	0.95361
428	H	0.249232	0.297406	0.953292
429	C	0.204918	0.285432	0.315504
430	C	0.237582	0.284805	0.315281
431	H	0.193865	0.297831	0.286906
432	H	0.249081	0.297746	0.286607
433	C	0.304822	0.287587	0.39254
434	C	0.33748	0.288224	0.392374
435	C	0.204918	0.285432	0.648837
436	C	0.237582	0.284805	0.648616
437	H	0.193865	0.297831	0.620241
438	H	0.249081	0.297746	0.619941
439	C	0.304822	0.287587	0.725874
440	C	0.337482	0.288224	0.725708
441	C	0.705083	0.28499	0.982205
442	C	0.737749	0.284451	0.981974
443	H	0.694014	0.297358	0.95361
444	H	0.749231	0.297406	0.953292
445	C	0.704918	0.285432	0.315504
446	C	0.737581	0.284805	0.315281
447	H	0.693865	0.297831	0.286906
448	H	0.74908	0.297746	0.286607
449	C	0.80482	0.287587	0.39254
450	C	0.837481	0.288224	0.392374
451	C	0.704918	0.285432	0.648837
452	C	0.737581	0.284805	0.648616
453	H	0.693865	0.297831	0.620241
454	H	0.749079	0.297746	0.619941
455	C	0.80482	0.287587	0.725874
456	C	0.837481	0.288224	0.725708
457	O	0.136701	0.516777	0.015885
458	H	0.142953	0.001424	0.985398
459	H	0.400532	0.531391	0.986237
460	H	0.496921	0.435329	0.346863
461	C	0.110228	0.321824	6e-05
462	C	0.093668	0.370296	0.001365
463	H	0.101239	0.290694	0.981
464	H	0.073801	0.37148	0.982964
465	C	0.39195	0.360889	0.995876
466	C	0.408584	0.409163	0.993411
467	H	0.400214	0.436779	0.971858
468	H	0.372225	0.357165	0.977258
469	C	0.056228	0.470578	0.355314
470	C	0.089073	0.46813	0.354797
471	C	0.105082	0.51759	0.350975
472	H	0.045033	0.435592	0.36051
473	O	0.13652	0.517439	0.349445
474	C	0.485884	0.470963	0.351006
475	C	0.453025	0.468951	0.350032
476	H	0.142826	0.00208	0.318989
477	H	0.400472	0.532073	0.319063
478	H	0.496921	0.43533	0.680197
479	C	0.139004	0.31653	0.354952
480	C	0.110049	0.322412	0.33338
481	C	0.093494	0.370891	0.334714
482	C	0.105072	0.417965	0.356685
483	C	0.133925	0.411997	0.37851
484	C	0.150589	0.363595	0.376881
485	H	0.101046	0.291288	0.31433
486	H	0.073621	0.372082	0.316328
487	H	0.170769	0.362335	0.394491
488	H	0.14277	0.442599	0.398281
489	C	0.403083	0.317182	0.352811
490	C	0.391719	0.361485	0.329236
491	C	0.408355	0.409755	0.326711
492	C	0.436846	0.418697	0.349287
493	C	0.447991	0.374437	0.373311
494	C	0.431564	0.325931	0.375407
495	H	0.399976	0.43733	0.305129
496	H	0.37199	0.357736	0.310636
497	H	0.440322	0.29701	0.395485
498	H	0.467523	0.377965	0.392409
499	H	0.293315	0.302627	0.421239
500	H	0.348515	0.302749	0.421028
501	C	0.056228	0.470579	0.688648
502	C	0.089073	0.46813	0.68813
503	C	0.105082	0.51759	0.684305
504	H	0.045033	0.435592	0.693844
505	O	0.13652	0.517439	0.682779
506	C	0.485884	0.470963	0.68434
507	C	0.453025	0.468951	0.683363
508	H	0.142826	0.00208	0.652323
509	H	0.400472	0.532073	0.652396
510	C	0.139004	0.31653	0.688286
511	C	0.110049	0.322412	0.666712
512	C	0.093494	0.370891	0.668048
513	C	0.105072	0.417965	0.690019
514	C	0.133925	0.411997	0.711844
515	C	0.150589	0.363595	0.710214
516	H	0.101046	0.291288	0.647663
517	H	0.073621	0.372082	0.649662
518	H	0.170769	0.362336	0.727824
519	H	0.14277	0.442599	0.731615
520	C	0.403083	0.317182	0.686145
521	C	0.391721	0.361485	0.66257
522	C	0.408355	0.409755	0.660043
523	C	0.436846	0.418698	0.68262
524	C	0.447991	0.374437	0.706645
525	C	0.431564	0.325931	0.70874
526	H	0.399976	0.43733	0.638462
527	H	0.371989	0.357736	0.643969
528	H	0.440321	0.29701	0.728819
529	H	0.467523	0.377965	0.725743
530	H	0.293315	0.302627	0.754569
531	H	0.348517	0.302749	0.754362
532	O	0.136703	0.016777	0.015885
533	O	0.406177	0.518349	0.016627
534	H	0.142952	0.501424	0.985398
535	H	0.045675	0.600955	0.346832
536	H	0.496921	0.93533	0.346863
537	C	0.110229	0.821822	6e-05
538	C	0.093669	0.870295	0.001368
539	C	0.151555	0.672873	0.995938
540	C	0.134986	0.624407	0.993366
541	C	0.205083	0.784986	0.982205
542	C	0.237748	0.784451	0.981974
543	H	0.143951	0.595201	0.971782
544	H	0.171782	0.675197	0.977382
545	H	0.101239	0.790695	0.981003
546	H	0.073802	0.87148	0.982964
547	H	0.194015	0.797356	0.95361
548	H	0.249232	0.797407	0.953292
549	C	0.433058	0.712186	5.3e-05
550	C	0.449569	0.663805	0.001427
551	C	0.39195	0.860891	0.995876
552	C	0.408584	0.909163	0.993411
553	C	0.338661	0.74816	0.982091
554	C	0.306003	0.74887	0.981873
555	H	0.400214	0.936783	0.971858
556	H	0.372225	0.857167	0.977261
557	H	0.442546	0.741812	0.980962
558	H	0.469906	0.661161	0.983023
559	H	0.350436	0.733661	0.953447
560	H	0.29523	0.733873	0.953151
561	C	0.03839	0.518256	0.35317
562	C	0.056228	0.970578	0.355314
563	C	0.089073	0.968126	0.3548
564	C	0.105082	0.01759	0.350975
565	C	0.089489	0.567582	0.349994
566	C	0.056605	0.565647	0.351006
567	H	0.045033	0.935592	0.36051
568	O	0.13652	0.017439	0.349445
569	C	0.504045	0.518516	0.35317
570	C	0.485884	0.970963	0.351009
571	C	0.453025	0.968951	0.350032
572	C	0.437409	0.519018	0.351002
573	C	0.453323	0.568773	0.354824
574	C	0.486156	0.566366	0.355301
575	O	0.406008	0.519053	0.349511
576	H	0.497214	0.601747	0.360538
577	H	0.142826	0.50208	0.318989
578	H	0.045675	0.600956	0.680166
579	H	0.496921	0.93533	0.680197
580	N	0.154845	0.768209	0.353944
581	C	0.139361	0.719566	0.352787
582	C	0.187283	0.768399	0.353916
583	C	0.139004	0.816531	0.354952
584	C	0.110048	0.822411	0.333381
585	C	0.093494	0.870889	0.334715
586	C	0.105072	0.917965	0.356688
587	C	0.133925	0.911995	0.37851
588	C	0.150589	0.863597	0.376881
589	C	0.151329	0.673449	0.329206
590	C	0.134759	0.624984	0.32668
591	C	0.105688	0.617775	0.349259
592	C	0.093928	0.663885	0.373287
593	C	0.110298	0.712556	0.375382
594	C	0.204918	0.785431	0.315504
595	C	0.237582	0.784804	0.315281
596	C	0.254451	0.768413	0.353861
597	C	0.236603	0.75205	0.392475
598	C	0.203948	0.751377	0.392295
599	H	0.1437	0.595758	0.305091
600	H	0.171538	0.675767	0.310605
601	H	0.101023	0.743025	0.395457
602	H	0.0739	0.661849	0.392378
603	H	0.101046	0.791288	0.31433
604	H	0.07362	0.872083	0.31633
605	H	0.193865	0.797832	0.286907
606	H	0.249081	0.797745	0.286607
607	H	0.247369	0.739036	0.421108
608	H	0.192175	0.738908	0.420894
609	H	0.170769	0.862333	0.394491
610	H	0.14277	0.942599	0.398285
611	N	0.387572	0.768624	0.353965
612	C	0.403083	0.817182	0.352811
613	C	0.355135	0.768431	0.35393
614	C	0.403384	0.72038	0.354976
615	C	0.432897	0.712841	0.333411
616	C	0.449415	0.664461	0.334737
617	C	0.437274	0.619083	0.356713
618	C	0.407876	0.626753	0.378583
619	C	0.391233	0.675004	0.376905
620	C	0.391719	0.861486	0.329236
621	C	0.408355	0.909755	0.326711
622	C	0.436846	0.918697	0.349287
623	C	0.447991	0.874434	0.373311
624	C	0.431564	0.825929	0.375407
625	C	0.338495	0.748627	0.315448
626	C	0.305837	0.749237	0.315221
627	C	0.287972	0.768413	0.353861
628	C	0.304822	0.787586	0.39254
629	C	0.33748	0.788226	0.392374
630	H	0.399976	0.93733	0.30513
631	H	0.37199	0.857734	0.310636
632	H	0.440322	0.797012	0.395485
633	H	0.467523	0.877962	0.392409
634	H	0.442384	0.742495	0.314351
635	H	0.469757	0.66185	0.31634
636	H	0.350289	0.73416	0.286804
637	H	0.29508	0.734223	0.286494
638	H	0.293315	0.802626	0.421239
639	H	0.348515	0.80275	0.421028
640	H	0.370606	0.677637	0.394529
641	H	0.398508	0.597655	0.398319
642	C	0.03839	0.518257	0.686504
643	C	0.056227	0.970579	0.688648
644	C	0.089073	0.968126	0.688134
645	C	0.105082	0.01759	0.684309
646	C	0.089489	0.567582	0.683328
647	C	0.056605	0.565647	0.68434
648	H	0.045033	0.935589	0.693844
649	O	0.13652	0.017439	0.682779
650	C	0.504045	0.518516	0.686504
651	C	0.485884	0.970963	0.68434
652	C	0.453025	0.968951	0.683366
653	C	0.437409	0.519015	0.684336
654	C	0.453323	0.568773	0.688158
655	C	0.486156	0.566367	0.688631
656	O	0.406008	0.519053	0.682845
657	H	0.497214	0.601747	0.693871
658	H	0.142826	0.50208	0.652323
659	N	0.154845	0.768209	0.687278
660	C	0.139361	0.719566	0.686121
661	C	0.187284	0.768399	0.68725
662	C	0.139004	0.816531	0.688286
663	C	0.110048	0.822411	0.666716
664	C	0.093494	0.87089	0.668048
665	C	0.105072	0.917966	0.690022
666	C	0.133925	0.911995	0.711844
667	C	0.150589	0.863593	0.710214
668	C	0.151329	0.673449	0.662539
669	C	0.134759	0.624985	0.660015
670	C	0.105688	0.617775	0.682593
671	C	0.093928	0.663885	0.706621
672	C	0.110298	0.712556	0.708713
673	C	0.204918	0.785431	0.648837
674	C	0.237582	0.784805	0.648616
675	C	0.254451	0.768413	0.687195
676	C	0.236602	0.752051	0.725808
677	C	0.203948	0.751378	0.725629
678	H	0.1437	0.595758	0.638425
679	H	0.171538	0.675767	0.643938
680	H	0.101023	0.743025	0.728791
681	H	0.0739	0.661849	0.725708
682	H	0.101046	0.791288	0.647663
683	H	0.07362	0.872083	0.649662
684	H	0.193865	0.797829	0.620241
685	H	0.249081	0.797745	0.619941
686	H	0.247369	0.739036	0.754441
687	H	0.192175	0.738908	0.754227
688	H	0.170769	0.862334	0.727824
689	H	0.14277	0.942599	0.731615
690	N	0.387572	0.768624	0.687298
691	C	0.403083	0.817182	0.686145
692	C	0.355135	0.768432	0.687264
693	C	0.403384	0.72038	0.68831
694	C	0.432897	0.712841	0.666743
695	C	0.449415	0.664462	0.668069
696	C	0.437273	0.619083	0.690046
697	C	0.407876	0.626753	0.711916
698	C	0.391233	0.675004	0.710239
699	C	0.391721	0.861486	0.66257
700	C	0.408355	0.909755	0.660043
701	C	0.436846	0.918697	0.68262
702	C	0.447991	0.874435	0.706645
703	C	0.431564	0.825929	0.708737
704	C	0.338495	0.748628	0.648781
705	C	0.305837	0.749237	0.648553
706	C	0.287972	0.768413	0.687195
707	C	0.304822	0.787587	0.725874
708	C	0.337482	0.788222	0.725708
709	H	0.399976	0.937331	0.638462
710	H	0.371989	0.857734	0.643969
711	H	0.440321	0.797008	0.728815
712	H	0.467523	0.877962	0.725739
713	H	0.442384	0.742496	0.647683
714	H	0.469757	0.66185	0.649672
715	H	0.350289	0.73416	0.620138
716	H	0.29508	0.734224	0.619827
717	H	0.293315	0.802627	0.754569
718	H	0.348517	0.80275	0.754362
719	H	0.370606	0.677637	0.727862
720	H	0.398508	0.597656	0.731653
721	O	0.6367	0.516777	0.015885
722	H	0.642954	0.001424	0.985398
723	H	0.90053	0.531391	0.986237
724	H	0.996922	0.435329	0.346863
725	C	0.610229	0.321824	6e-05
726	C	0.593667	0.370296	0.001365
727	H	0.601239	0.290694	0.981
728	H	0.573801	0.37148	0.982964
729	C	0.891948	0.360889	0.995876
730	C	0.908583	0.409163	0.993411
731	H	0.900213	0.436779	0.971858
732	H	0.872224	0.357165	0.977258
733	C	0.556227	0.470578	0.355314
734	C	0.589073	0.46813	0.354797
735	C	0.605082	0.51759	0.350975
736	H	0.545032	0.435592	0.36051
737	O	0.63652	0.517439	0.349445
738	C	0.985883	0.470963	0.351006
739	C	0.953024	0.468951	0.350032
740	H	0.642826	0.00208	0.318989
741	H	0.900471	0.532073	0.319063
742	H	0.996922	0.43533	0.680197
743	C	0.639003	0.31653	0.354952
744	C	0.610047	0.322412	0.33338
745	C	0.593493	0.370891	0.334714
746	C	0.605071	0.417965	0.356685
747	C	0.633925	0.411997	0.37851
748	C	0.650589	0.363595	0.376881
749	H	0.601046	0.291288	0.31433
750	H	0.573619	0.372082	0.316328
751	H	0.670767	0.362335	0.394491
752	H	0.642771	0.442599	0.398281
753	C	0.903082	0.317182	0.352811
754	C	0.89172	0.361485	0.329236
755	C	0.908353	0.409755	0.326711
756	C	0.936844	0.418697	0.349287
757	C	0.94799	0.374437	0.373311
758	C	0.931563	0.325931	0.375407
759	H	0.899975	0.43733	0.305129
760	H	0.871988	0.357736	0.310636
761	H	0.94032	0.29701	0.395485
762	H	0.967522	0.377965	0.392409
763	H	0.793316	0.302627	0.421239
764	H	0.848516	0.302749	0.421028
765	C	0.556227	0.470579	0.688648
766	C	0.589073	0.46813	0.68813
767	C	0.605082	0.51759	0.684305
768	H	0.545032	0.435592	0.693844
769	O	0.63652	0.517439	0.682779
770	C	0.985882	0.470963	0.68434
771	C	0.953026	0.468951	0.683363
772	H	0.642826	0.00208	0.652323
773	H	0.90047	0.532073	0.652396
774	C	0.639003	0.31653	0.688286
775	C	0.610049	0.322412	0.666712
776	C	0.593495	0.370891	0.668048
777	C	0.605071	0.417965	0.690019
778	C	0.633924	0.411997	0.711844
779	C	0.650589	0.363595	0.710214
780	H	0.601046	0.291288	0.647663
781	H	0.573619	0.372082	0.649662
782	H	0.670767	0.362336	0.727824
783	H	0.642771	0.442599	0.731615
784	C	0.903081	0.317182	0.686145
785	C	0.89172	0.361485	0.66257
786	C	0.908353	0.409755	0.660043
787	C	0.936847	0.418698	0.68262
788	C	0.94799	0.374437	0.706645
789	C	0.931563	0.325931	0.70874
790	H	0.899975	0.43733	0.638462
791	H	0.871988	0.357736	0.643969
792	H	0.94032	0.29701	0.728819
793	H	0.967522	0.377965	0.725743
794	H	0.793316	0.302627	0.754569
795	H	0.848516	0.302749	0.754362
796	O	0.636702	0.016777	0.015885
797	O	0.906176	0.518349	0.016627
798	H	0.642951	0.501424	0.985398
799	H	0.545675	0.600955	0.346832
800	H	0.996922	0.93533	0.346863
801	C	0.610229	0.821822	6e-05
802	C	0.59367	0.870295	0.001368
803	C	0.651555	0.672873	0.995938
804	C	0.634985	0.624407	0.993366
805	C	0.705083	0.784986	0.982205
806	C	0.737749	0.784451	0.981974
807	H	0.643949	0.595201	0.971782
808	H	0.671781	0.675197	0.977382
809	H	0.601239	0.790695	0.981003
810	H	0.573801	0.87148	0.982964
811	H	0.694014	0.797356	0.95361
812	H	0.749231	0.797407	0.953292
813	C	0.933057	0.712186	5.3e-05
814	C	0.949568	0.663805	0.001427
815	C	0.891951	0.860891	0.995876
816	C	0.908585	0.909163	0.993411
817	C	0.838659	0.74816	0.982091
818	C	0.806002	0.74887	0.981873
819	H	0.900215	0.936783	0.971858
820	H	0.872226	0.857167	0.977261
821	H	0.942544	0.741812	0.980962
822	H	0.969905	0.661161	0.983023
823	H	0.850438	0.733661	0.953447
824	H	0.795228	0.733873	0.953151
825	C	0.538391	0.518256	0.35317
826	C	0.556227	0.970578	0.355314
827	C	0.589073	0.968126	0.3548
828	C	0.605082	0.01759	0.350975
829	C	0.58949	0.567582	0.349994
830	C	0.556605	0.565647	0.351006
831	H	0.545032	0.935592	0.36051
832	O	0.63652	0.017439	0.349445
833	C	0.004043	0.518516	0.35317
834	C	0.985882	0.970963	0.351009
835	C	0.953024	0.968951	0.350032
836	C	0.937408	0.519018	0.351002
837	C	0.953321	0.568773	0.354824
838	C	0.986155	0.566366	0.355301
839	O	0.906009	0.519053	0.349511
840	H	0.997215	0.601747	0.360538
841	H	0.642826	0.50208	0.318989
842	H	0.545674	0.600956	0.680166
843	H	0.996922	0.93533	0.680197
844	N	0.654844	0.768209	0.353944
845	C	0.63936	0.719566	0.352787
846	C	0.687283	0.768399	0.353916
847	C	0.639003	0.816531	0.354952
848	C	0.610047	0.822411	0.333381
849	C	0.593493	0.870889	0.334715
850	C	0.605071	0.917965	0.356688
851	C	0.633925	0.911995	0.37851
852	C	0.650589	0.863597	0.376881
853	C	0.651328	0.673449	0.329206
854	C	0.634758	0.624984	0.32668
855	C	0.605688	0.617775	0.349259
856	C	0.593928	0.663885	0.373287
857	C	0.610297	0.712556	0.375382
858	C	0.704918	0.785431	0.315504
859	C	0.737581	0.784804	0.315281
860	C	0.75445	0.768413	0.353861
861	C	0.736601	0.75205	0.392475
862	C	0.703947	0.751377	0.392295
863	H	0.643699	0.595758	0.305091
864	H	0.671539	0.675767	0.310605
865	H	0.601023	0.743025	0.395457
866	H	0.5739	0.661849	0.392378
867	H	0.601046	0.791288	0.31433
868	H	0.573619	0.872083	0.31633
869	H	0.693865	0.797832	0.286907
870	H	0.74908	0.797745	0.286607
871	H	0.747368	0.739036	0.421108
872	H	0.692173	0.738908	0.420894
873	H	0.670767	0.862333	0.394491
874	H	0.642771	0.942599	0.398285
875	N	0.887571	0.768624	0.353965
876	C	0.903082	0.817182	0.352811
877	C	0.855134	0.768431	0.35393
878	C	0.903385	0.72038	0.354976
879	C	0.932898	0.712841	0.333411
880	C	0.949414	0.664461	0.334737
881	C	0.937272	0.619083	0.356713
882	C	0.907875	0.626753	0.378583
883	C	0.891232	0.675004	0.376905
884	C	0.89172	0.861486	0.329236
885	C	0.908353	0.909755	0.326711
886	C	0.936844	0.918697	0.349287
887	C	0.94799	0.874434	0.373311
888	C	0.931563	0.825929	0.375407
889	C	0.838496	0.748627	0.315448
890	C	0.805836	0.749237	0.315221
891	C	0.787971	0.768413	0.353861
892	C	0.80482	0.787586	0.39254
893	C	0.837481	0.788226	0.392374
894	H	0.899975	0.93733	0.30513
895	H	0.871988	0.857734	0.310636
896	H	0.94032	0.797012	0.395485
897	H	0.967522	0.877962	0.392409
898	H	0.942383	0.742495	0.314351
899	H	0.969758	0.66185	0.31634
900	H	0.850288	0.73416	0.286804
901	H	0.795079	0.734223	0.286494
902	H	0.793316	0.802626	0.421239
903	H	0.848516	0.80275	0.421028
904	H	0.870605	0.677637	0.394529
905	H	0.898506	0.597655	0.398319
906	C	0.538391	0.518257	0.686504
907	C	0.556227	0.970579	0.688648
908	C	0.589073	0.968126	0.688134
909	C	0.605082	0.01759	0.684309
910	C	0.589489	0.567582	0.683328
911	C	0.556605	0.565647	0.68434
912	H	0.545032	0.935589	0.693844
913	O	0.63652	0.017439	0.682779
914	C	0.004043	0.518516	0.686504
915	C	0.985882	0.970963	0.68434
916	C	0.953026	0.968951	0.683366
917	C	0.937408	0.519015	0.684336
918	C	0.953321	0.568773	0.688158
919	C	0.986155	0.566367	0.688631
920	O	0.906009	0.519053	0.682845
921	H	0.997215	0.601747	0.693871
922	H	0.642826	0.50208	0.652323
923	N	0.654843	0.768209	0.687278
924	C	0.63936	0.719566	0.686121
925	C	0.687283	0.768399	0.68725
926	C	0.639003	0.816531	0.688286
927	C	0.610047	0.822411	0.666716
928	C	0.593492	0.87089	0.668048
929	C	0.605071	0.917966	0.690022
930	C	0.633924	0.911995	0.711844
931	C	0.650589	0.863593	0.710214
932	C	0.651328	0.673449	0.662539
933	C	0.634757	0.624985	0.660015
934	C	0.605688	0.617775	0.682593
935	C	0.593928	0.663885	0.706621
936	C	0.610297	0.712556	0.708713
937	C	0.704918	0.785431	0.648837
938	C	0.737581	0.784805	0.648616
939	C	0.75445	0.768413	0.687195
940	C	0.736603	0.752051	0.725808
941	C	0.703947	0.751378	0.725629
942	H	0.643699	0.595758	0.638425
943	H	0.671539	0.675767	0.643938
944	H	0.601023	0.743025	0.728791
945	H	0.5739	0.661849	0.725708
946	H	0.601046	0.791288	0.647663
947	H	0.573619	0.872083	0.649662
948	H	0.693865	0.797829	0.620241
949	H	0.749079	0.797745	0.619941
950	H	0.747367	0.739036	0.754441
951	H	0.692175	0.738908	0.754227
952	H	0.670767	0.862334	0.727824
953	H	0.642771	0.942599	0.731615
954	N	0.88757	0.768624	0.687298
955	C	0.903081	0.817182	0.686145
956	C	0.855136	0.768432	0.687264
957	C	0.903385	0.72038	0.68831
958	C	0.932898	0.712841	0.666743
959	C	0.949416	0.664462	0.668069
960	C	0.937274	0.619083	0.690046
961	C	0.907875	0.626753	0.711916
962	C	0.891232	0.675004	0.710239
963	C	0.89172	0.861486	0.66257
964	C	0.908353	0.909755	0.660043
965	C	0.936847	0.918697	0.68262
966	C	0.94799	0.874435	0.706645
967	C	0.931563	0.825929	0.708737
968	C	0.838496	0.748628	0.648781
969	C	0.805836	0.749237	0.648553
970	C	0.787971	0.768413	0.687195
971	C	0.80482	0.787587	0.725874
972	C	0.837481	0.788222	0.725708
973	H	0.899975	0.937331	0.638462
974	H	0.871988	0.857734	0.643969
975	H	0.94032	0.797008	0.728815
976	H	0.967522	0.877962	0.725739
977	H	0.942383	0.742496	0.647683
978	H	0.969758	0.66185	0.649672
979	H	0.850288	0.73416	0.620138
980	H	0.795079	0.734224	0.619827
981	H	0.793316	0.802627	0.754569
982	H	0.848516	0.80275	0.754362
983	H	0.870605	0.677637	0.727862
984	H	0.898506	0.597656	0.731653
