data_C396H288N144O108_2018-02-15_10:32:46
#******************************************
#
# CIF file created by Zeo++
# Zeo++ is an open source package to
# analyze microporous materials
#
#*******************************************

_cell_length_a		43.5671   
_cell_length_b		43.5671   
_cell_length_c		30.0934   
_cell_angle_alpha		90   
_cell_angle_beta		90   
_cell_angle_gamma		120   

_symmetry_space_group_name_H-M		'P1'
_symmetry_Int_Tables_number		1
_symmetry_cell_setting		Monoclinic

loop_
_symmetry_equiv_pos_as_xyz
'+x,+y,+z'

loop_
_atom_site_label
_atom_site_type_symbol
_atom_site_fract_x
_atom_site_fract_y
_atom_site_fract_z
1	C	0.176614	0.369192	0.049344
2	C	0.140001	0.343661	0.049708
3	C	0.126909	0.306638	0.049439
4	C	0.152446	0.295562	0.049741
5	C	0.189469	0.319492	0.382738
6	C	0.200553	0.35611	0.04973
7	H	0.143546	0.269119	0.047246
8	H	0.226989	0.373645	0.047102
9	H	0.122456	0.352558	0.047189
10	C	0.188027	0.405845	0.04372
11	C	0.214714	0.308085	0.377115
12	C	0.090253	0.281387	0.043861
13	O	0.248933	0.333285	0.036068
14	O	0.162828	0.414859	0.03597
15	O	0.081232	0.247167	0.036169
16	C	0.319542	0.127901	0.958438
17	C	0.355967	0.154017	0.957953
18	C	0.368249	0.190879	0.958398
19	C	0.342121	0.201175	0.95797
20	C	0.305258	0.1766	0.291718
21	C	0.294959	0.140175	0.957963
22	H	0.350435	0.227498	0.960495
23	H	0.268636	0.122174	0.960495
24	H	0.373974	0.145704	0.960518
25	C	0.308941	0.091503	0.964626
26	C	0.27946	0.187194	0.297939
27	C	0.404639	0.216679	0.964626
28	O	0.245509	0.161454	0.972664
29	O	0.33468	0.083294	0.972717
30	O	0.412834	0.250615	0.97277
31	C	0.226536	0.259971	0.026773
32	N	0.255607	0.280884	0.33487
33	C	0.275687	0.269749	0.313724
34	C	0.266203	0.233784	0.316727
35	N	0.2373	0.212898	0.008729
36	C	0.216927	0.223669	0.030294
37	H	0.297245	0.287539	0.295849
38	C	0.18665	0.196647	0.056685
39	O	0.189961	0.205543	0.102938
40	H	0.184003	0.170425	0.052987
41	H	0.16218	0.19463	0.044251
42	H	0.210501	0.204563	0.114904
43	N	0.206964	0.273542	0.044625
44	H	0.184923	0.256689	0.058664
45	N	0.286452	0.221478	0.297894
46	H	0.308253	0.239191	0.28385
47	C	0.236147	0.465786	0.026751
48	N	0.215241	0.473952	0.334844
49	C	0.226382	0.005171	0.31371
50	C	0.262347	0.031652	0.316731
51	N	0.283225	0.023628	0.008738
52	C	0.272448	0.492478	0.030292
53	H	0.208599	0.008945	0.295829
54	C	0.299461	0.489216	0.056691
55	O	0.290553	0.483621	0.10294
56	H	0.325685	0.512791	0.053006
57	H	0.301481	0.466764	0.044253
58	H	0.291531	0.505137	0.114911
59	N	0.222568	0.432638	0.044592
60	H	0.239416	0.427448	0.058646
61	N	0.274658	0.064212	0.29791
62	H	0.256948	0.068302	0.28386
63	C	0.030321	0.269572	0.026862
64	N	0.022165	0.240505	0.33495
65	C	0.490956	0.220434	0.313795
66	C	0.464478	0.229923	0.31679
67	N	0.472493	0.258821	0.008802
68	C	0.003631	0.279185	0.03038
69	H	0.487187	0.19888	0.295913
70	C	0.006887	0.30946	0.056777
71	O	0.012466	0.306142	0.103029
72	H	0.983315	0.312111	0.053076
73	H	0.029343	0.333932	0.044349
74	H	0.990943	0.285602	0.11499
75	N	0.063465	0.289142	0.044717
76	H	0.068658	0.311186	0.058753
77	N	0.431929	0.209684	0.297938
78	H	0.427848	0.187894	0.283869
79	C	0.176614	0.369192	0.382678
80	C	0.140001	0.343661	0.38304
81	C	0.126909	0.306638	0.382771
82	C	0.152446	0.295562	0.383074
83	C	0.189469	0.319492	0.716073
84	C	0.200553	0.35611	0.383064
85	H	0.143546	0.269119	0.380578
86	H	0.226989	0.373645	0.380435
87	H	0.122456	0.352558	0.380522
88	C	0.188027	0.405845	0.377052
89	C	0.214714	0.308085	0.710447
90	C	0.090253	0.281387	0.377195
91	O	0.248933	0.333285	0.369403
92	O	0.162828	0.414859	0.369303
93	O	0.081232	0.247167	0.369503
94	C	0.319542	0.127901	0.29177
95	C	0.355967	0.154017	0.291287
96	C	0.368249	0.190879	0.29173
97	C	0.342121	0.201175	0.291303
98	C	0.305258	0.1766	0.625053
99	C	0.294959	0.140175	0.291296
100	H	0.350435	0.227498	0.293828
101	H	0.268636	0.122174	0.293829
102	H	0.373974	0.145704	0.293851
103	C	0.308941	0.091503	0.297959
104	C	0.27946	0.187194	0.631274
105	C	0.404639	0.216679	0.29796
106	O	0.245509	0.161454	0.305998
107	O	0.33468	0.083294	0.306049
108	O	0.412834	0.250615	0.306101
109	C	0.226536	0.259971	0.360105
110	N	0.255607	0.280884	0.668202
111	C	0.275687	0.269749	0.647058
112	C	0.266203	0.233784	0.650062
113	N	0.2373	0.212898	0.342061
114	C	0.216927	0.223669	0.363627
115	H	0.297245	0.287539	0.629184
116	C	0.18665	0.196647	0.390019
117	O	0.189961	0.205543	0.436271
118	H	0.184003	0.170425	0.38632
119	H	0.16218	0.19463	0.377584
120	H	0.210501	0.204563	0.448237
121	N	0.206964	0.273542	0.37796
122	H	0.184923	0.256689	0.391999
123	N	0.286452	0.221478	0.631227
124	H	0.308253	0.239191	0.617184
125	C	0.236147	0.465786	0.360085
126	N	0.215241	0.473952	0.668176
127	C	0.226382	0.005171	0.647045
128	C	0.262347	0.031652	0.650065
129	N	0.283225	0.023628	0.342071
130	C	0.272448	0.492478	0.363624
131	H	0.208599	0.008945	0.629164
132	C	0.299461	0.489216	0.390025
133	O	0.290553	0.483621	0.436275
134	H	0.325685	0.512791	0.38634
135	H	0.301481	0.466764	0.377587
136	H	0.291531	0.505137	0.448244
137	N	0.222568	0.432638	0.377926
138	H	0.239416	0.427448	0.391979
139	N	0.274658	0.064212	0.631244
140	H	0.256948	0.068302	0.617194
141	C	0.030321	0.269572	0.360195
142	N	0.022165	0.240505	0.668285
143	C	0.490956	0.220434	0.647128
144	C	0.464478	0.229923	0.650125
145	N	0.472493	0.258821	0.342134
146	C	0.003631	0.279185	0.363714
147	H	0.487187	0.19888	0.629247
148	C	0.006887	0.30946	0.390112
149	O	0.012466	0.306142	0.436364
150	H	0.983315	0.312111	0.38641
151	H	0.029343	0.333932	0.377684
152	H	0.990943	0.285602	0.448324
153	N	0.063465	0.289142	0.378053
154	H	0.068658	0.311186	0.392086
155	N	0.431929	0.209684	0.631271
156	H	0.427848	0.187894	0.617204
157	C	0.176614	0.369192	0.71601
158	C	0.140001	0.343661	0.716376
159	C	0.126909	0.306638	0.716106
160	C	0.152446	0.295562	0.716409
161	C	0.189469	0.319492	0.049404
162	C	0.200553	0.35611	0.716399
163	H	0.143546	0.269119	0.713913
164	H	0.226989	0.373645	0.71377
165	H	0.122456	0.352558	0.713857
166	C	0.188027	0.405845	0.710388
167	C	0.214714	0.308085	0.04378
168	C	0.090253	0.281387	0.710527
169	O	0.248933	0.333285	0.702735
170	O	0.162828	0.414859	0.702638
171	O	0.081232	0.247167	0.702838
172	C	0.319542	0.127901	0.625103
173	C	0.355967	0.154017	0.624621
174	C	0.368249	0.190879	0.625063
175	C	0.342121	0.201175	0.624638
176	C	0.305258	0.1766	0.958385
177	C	0.294959	0.140175	0.624631
178	H	0.350435	0.227498	0.627163
179	H	0.268636	0.122174	0.627163
180	H	0.373974	0.145704	0.627187
181	C	0.308941	0.091503	0.631294
182	C	0.27946	0.187194	0.964606
183	C	0.404639	0.216679	0.631294
184	O	0.245509	0.161454	0.639332
185	O	0.33468	0.083294	0.639382
186	O	0.412834	0.250615	0.639435
187	C	0.226536	0.259971	0.69344
188	N	0.255607	0.280884	0.001535
189	C	0.275687	0.269749	0.980393
190	C	0.266203	0.233784	0.983394
191	N	0.2373	0.212898	0.675397
192	C	0.216927	0.223669	0.696963
193	H	0.297245	0.287539	0.962516
194	C	0.18665	0.196647	0.723354
195	O	0.189961	0.205543	0.769606
196	H	0.184003	0.170425	0.719655
197	H	0.16218	0.19463	0.710919
198	H	0.210501	0.204563	0.781572
199	N	0.206964	0.273542	0.711291
200	H	0.184923	0.256689	0.725331
201	N	0.286452	0.221478	0.964563
202	H	0.308253	0.239191	0.950516
203	C	0.236147	0.465786	0.693417
204	N	0.215241	0.473952	0.001509
205	C	0.226382	0.005171	0.980377
206	C	0.262347	0.031652	0.983397
207	N	0.283225	0.023628	0.675406
208	C	0.272448	0.492478	0.696959
209	H	0.208599	0.008945	0.962496
210	C	0.299461	0.489216	0.723357
211	O	0.290553	0.483621	0.769606
212	H	0.325685	0.512791	0.719672
213	H	0.301481	0.466764	0.710919
214	H	0.291531	0.505137	0.781579
215	N	0.222568	0.432638	0.711258
216	H	0.239416	0.427448	0.725314
217	N	0.274658	0.064212	0.964576
218	H	0.256948	0.068302	0.950526
219	C	0.030321	0.269572	0.69353
220	N	0.022165	0.240505	0.001617
221	C	0.490956	0.220434	0.980463
222	C	0.464478	0.229923	0.983457
223	N	0.472493	0.258821	0.67547
224	C	0.003631	0.279185	0.697046
225	H	0.487187	0.19888	0.962579
226	C	0.006887	0.30946	0.723444
227	O	0.012466	0.306142	0.769696
228	H	0.983315	0.312111	0.719745
229	H	0.029343	0.333932	0.711016
230	H	0.990943	0.285602	0.781659
231	N	0.063465	0.289142	0.711384
232	H	0.068658	0.311186	0.725421
233	N	0.431929	0.209684	0.964606
234	H	0.427848	0.187894	0.950536
235	C	0.176614	0.869192	0.049344
236	C	0.140002	0.843661	0.049708
237	C	0.126911	0.80664	0.049439
238	C	0.152447	0.795564	0.049741
239	C	0.189471	0.819495	0.382738
240	C	0.200554	0.85611	0.04973
241	H	0.143546	0.769119	0.047246
242	H	0.226989	0.873645	0.047102
243	H	0.122457	0.852559	0.047189
244	C	0.188029	0.905845	0.04372
245	C	0.214715	0.808085	0.377115
246	C	0.090256	0.78139	0.043861
247	O	0.248934	0.833285	0.036068
248	O	0.16283	0.914859	0.03597
249	O	0.081234	0.747168	0.036169
250	C	0.319544	0.6279	0.958438
251	C	0.355967	0.654017	0.957953
252	C	0.368248	0.690879	0.958398
253	C	0.342121	0.701176	0.95797
254	C	0.305259	0.676601	0.291718
255	C	0.294961	0.640177	0.957963
256	H	0.350437	0.7275	0.960495
257	H	0.268636	0.622173	0.960495
258	H	0.373974	0.645706	0.960518
259	C	0.308943	0.591505	0.964626
260	C	0.279461	0.687195	0.297939
261	C	0.404638	0.716678	0.964626
262	O	0.245509	0.661454	0.972664
263	O	0.33468	0.583294	0.972717
264	O	0.412836	0.750616	0.97277
265	C	0.226537	0.759972	0.026773
266	N	0.255609	0.780887	0.33487
267	C	0.275687	0.76975	0.313724
268	C	0.266203	0.733784	0.316727
269	N	0.237301	0.712899	0.008729
270	C	0.216928	0.72367	0.030294
271	H	0.297245	0.787539	0.295849
272	C	0.18665	0.696646	0.056685
273	O	0.189962	0.705544	0.102938
274	H	0.184004	0.670426	0.052987
275	H	0.162181	0.694629	0.044251
276	H	0.210501	0.704563	0.114904
277	N	0.206964	0.773542	0.044625
278	H	0.184923	0.756688	0.058664
279	N	0.286453	0.721478	0.297894
280	H	0.308253	0.73919	0.28385
281	C	0.236146	0.965786	0.026751
282	N	0.215242	0.973952	0.334844
283	C	0.226382	0.505171	0.31371
284	C	0.262346	0.531651	0.316731
285	N	0.283226	0.523628	0.008738
286	C	0.272448	0.992478	0.030292
287	H	0.208599	0.508945	0.295829
288	C	0.299462	0.989216	0.056691
289	O	0.290554	0.983621	0.10294
290	H	0.325684	0.01279	0.053006
291	H	0.301482	0.966767	0.044253
292	H	0.29153	0.005137	0.114911
293	N	0.222569	0.932638	0.044592
294	H	0.239416	0.927448	0.058646
295	N	0.274658	0.564211	0.29791
296	H	0.256948	0.568301	0.28386
297	C	0.030322	0.769572	0.026862
298	N	0.022165	0.740505	0.33495
299	C	0.490956	0.720434	0.313795
300	C	0.464479	0.729925	0.31679
301	N	0.472493	0.758822	0.008802
302	C	0.003632	0.779185	0.03038
303	H	0.487189	0.698881	0.295913
304	C	0.006887	0.80946	0.056777
305	O	0.012468	0.806142	0.103029
306	H	0.983315	0.812111	0.053076
307	H	0.029344	0.833932	0.044349
308	H	0.990943	0.785602	0.11499
309	N	0.063465	0.789143	0.044717
310	H	0.068658	0.811186	0.058753
311	N	0.431929	0.709684	0.297938
312	H	0.427849	0.687895	0.283869
313	C	0.176614	0.869192	0.382678
314	C	0.140002	0.843661	0.38304
315	C	0.126911	0.80664	0.382771
316	C	0.152447	0.795564	0.383074
317	C	0.189471	0.819495	0.716073
318	C	0.200554	0.85611	0.383064
319	H	0.143546	0.769119	0.380578
320	H	0.226989	0.873645	0.380435
321	H	0.122457	0.852559	0.380522
322	C	0.188029	0.905845	0.377052
323	C	0.214715	0.808085	0.710447
324	C	0.090256	0.78139	0.377195
325	O	0.248934	0.833285	0.369403
326	O	0.16283	0.914859	0.369303
327	O	0.081234	0.747168	0.369503
328	C	0.319544	0.6279	0.29177
329	C	0.355967	0.654017	0.291287
330	C	0.368248	0.690879	0.29173
331	C	0.342121	0.701176	0.291303
332	C	0.305259	0.676601	0.625053
333	C	0.294961	0.640177	0.291296
334	H	0.350437	0.7275	0.293828
335	H	0.268636	0.622173	0.293829
336	H	0.373974	0.645706	0.293851
337	C	0.308943	0.591505	0.297959
338	C	0.279461	0.687195	0.631274
339	C	0.404638	0.716678	0.29796
340	O	0.245509	0.661454	0.305998
341	O	0.33468	0.583294	0.306049
342	O	0.412836	0.750616	0.306101
343	C	0.226537	0.759972	0.360105
344	N	0.255609	0.780887	0.668202
345	C	0.275687	0.76975	0.647058
346	C	0.266203	0.733784	0.650062
347	N	0.237301	0.712899	0.342061
348	C	0.216928	0.72367	0.363627
349	H	0.297245	0.787539	0.629184
350	C	0.18665	0.696646	0.390019
351	O	0.189962	0.705544	0.436271
352	H	0.184004	0.670426	0.38632
353	H	0.162181	0.694629	0.377584
354	H	0.210501	0.704563	0.448237
355	N	0.206964	0.773542	0.37796
356	H	0.184923	0.756688	0.391999
357	N	0.286453	0.721478	0.631227
358	H	0.308253	0.73919	0.617184
359	C	0.236146	0.965786	0.360085
360	N	0.215242	0.973952	0.668176
361	C	0.226382	0.505171	0.647045
362	C	0.262346	0.531651	0.650065
363	N	0.283226	0.523628	0.342071
364	C	0.272448	0.992478	0.363624
365	H	0.208599	0.508945	0.629164
366	C	0.299462	0.989216	0.390025
367	O	0.290554	0.983621	0.436275
368	H	0.325684	0.01279	0.38634
369	H	0.301482	0.966767	0.377587
370	H	0.29153	0.005137	0.448244
371	N	0.222569	0.932638	0.377926
372	H	0.239416	0.927448	0.391979
373	N	0.274658	0.564211	0.631244
374	H	0.256948	0.568301	0.617194
375	C	0.030322	0.769572	0.360195
376	N	0.022165	0.740505	0.668285
377	C	0.490956	0.720434	0.647128
378	C	0.464479	0.729925	0.650125
379	N	0.472493	0.758822	0.342134
380	C	0.003632	0.779185	0.363714
381	H	0.487189	0.698881	0.629247
382	C	0.006887	0.80946	0.390112
383	O	0.012468	0.806142	0.436364
384	H	0.983315	0.812111	0.38641
385	H	0.029344	0.833932	0.377684
386	H	0.990943	0.785602	0.448324
387	N	0.063465	0.789143	0.378053
388	H	0.068658	0.811186	0.392086
389	N	0.431929	0.709684	0.631271
390	H	0.427849	0.687895	0.617204
391	C	0.176614	0.869192	0.71601
392	C	0.140002	0.843661	0.716376
393	C	0.126911	0.80664	0.716106
394	C	0.152447	0.795564	0.716409
395	C	0.189471	0.819495	0.049404
396	C	0.200554	0.85611	0.716395
397	H	0.143546	0.769119	0.713913
398	H	0.226989	0.873645	0.71377
399	H	0.122457	0.852559	0.713857
400	C	0.188029	0.905845	0.710388
401	C	0.214715	0.808085	0.04378
402	C	0.090256	0.78139	0.710527
403	O	0.248934	0.833285	0.702735
404	O	0.16283	0.914859	0.702638
405	O	0.081234	0.747168	0.702838
406	C	0.319544	0.6279	0.625103
407	C	0.355967	0.654017	0.624621
408	C	0.368248	0.690879	0.625063
409	C	0.342121	0.701176	0.624638
410	C	0.305259	0.676601	0.958385
411	C	0.294961	0.640177	0.624631
412	H	0.350437	0.7275	0.627163
413	H	0.268636	0.622173	0.627163
414	H	0.373974	0.645706	0.627187
415	C	0.308943	0.591505	0.631294
416	C	0.279461	0.687195	0.964606
417	C	0.404638	0.716678	0.631294
418	O	0.245509	0.661454	0.639332
419	O	0.33468	0.583294	0.639382
420	O	0.412836	0.750616	0.639435
421	C	0.226537	0.759972	0.69344
422	N	0.255609	0.780887	0.001535
423	C	0.275687	0.76975	0.980393
424	C	0.266203	0.733784	0.983394
425	N	0.237301	0.712899	0.675397
426	C	0.216928	0.72367	0.696963
427	H	0.297245	0.787539	0.962516
428	C	0.18665	0.696646	0.723354
429	O	0.189962	0.705544	0.769606
430	H	0.184004	0.670426	0.719655
431	H	0.162181	0.694629	0.710919
432	H	0.210501	0.704563	0.781572
433	N	0.206964	0.773542	0.711291
434	H	0.184923	0.756688	0.725331
435	N	0.286453	0.721478	0.964563
436	H	0.308253	0.73919	0.950516
437	C	0.236146	0.965786	0.693417
438	N	0.215242	0.973952	0.001509
439	C	0.226382	0.505171	0.980377
440	C	0.262346	0.531651	0.983397
441	N	0.283226	0.523628	0.675406
442	C	0.272448	0.992478	0.696959
443	H	0.208599	0.508945	0.962496
444	C	0.299462	0.989216	0.723357
445	O	0.290554	0.983621	0.769606
446	H	0.325684	0.01279	0.719672
447	H	0.301482	0.966767	0.710919
448	H	0.29153	0.005137	0.781579
449	N	0.222569	0.932638	0.711258
450	H	0.239416	0.927448	0.725314
451	N	0.274658	0.564211	0.964576
452	H	0.256948	0.568301	0.950526
453	C	0.030322	0.769572	0.69353
454	N	0.022165	0.740505	0.001617
455	C	0.490956	0.720434	0.980463
456	C	0.464479	0.729925	0.983457
457	N	0.472493	0.758822	0.67547
458	C	0.003632	0.779185	0.697046
459	H	0.487189	0.698881	0.962579
460	C	0.006887	0.80946	0.723444
461	O	0.012468	0.806142	0.769696
462	H	0.983315	0.812111	0.719745
463	H	0.029344	0.833932	0.711016
464	H	0.990943	0.785602	0.781659
465	N	0.063465	0.789143	0.711384
466	H	0.068658	0.811186	0.725421
467	N	0.431929	0.709684	0.964606
468	H	0.427849	0.687895	0.950536
469	C	0.676615	0.369192	0.049344
470	C	0.640001	0.343661	0.049708
471	C	0.626908	0.306638	0.049439
472	C	0.652446	0.295562	0.049741
473	C	0.68947	0.319492	0.382738
474	C	0.700553	0.35611	0.04973
475	H	0.643547	0.269119	0.047246
476	H	0.72699	0.373645	0.047102
477	H	0.622456	0.352558	0.047189
478	C	0.688027	0.405845	0.04372
479	C	0.714714	0.308085	0.377115
480	C	0.590253	0.281387	0.043861
481	O	0.748933	0.333285	0.036068
482	O	0.662829	0.414859	0.03597
483	O	0.581232	0.247167	0.036169
484	C	0.819544	0.127901	0.958438
485	C	0.855966	0.154017	0.957953
486	C	0.868248	0.190879	0.958398
487	C	0.84212	0.201175	0.95797
488	C	0.805258	0.1766	0.291718
489	C	0.79496	0.140175	0.957963
490	H	0.850436	0.227498	0.960495
491	H	0.768637	0.122174	0.960495
492	H	0.873973	0.145704	0.960518
493	C	0.808942	0.091503	0.964626
494	C	0.779461	0.187194	0.297939
495	C	0.904638	0.216679	0.964626
496	O	0.745508	0.161454	0.972664
497	O	0.834679	0.083294	0.972717
498	O	0.912835	0.250615	0.97277
499	C	0.726537	0.259971	0.026773
500	N	0.755608	0.280884	0.33487
501	C	0.775687	0.269749	0.313724
502	C	0.766204	0.233784	0.316727
503	N	0.737299	0.212898	0.008729
504	C	0.716927	0.223669	0.030294
505	H	0.797245	0.287539	0.295849
506	C	0.686651	0.196647	0.056685
507	O	0.68996	0.205543	0.102938
508	H	0.684004	0.170425	0.052987
509	H	0.662179	0.19463	0.044251
510	H	0.710502	0.204563	0.114904
511	N	0.706963	0.273542	0.044625
512	H	0.684923	0.256689	0.058664
513	N	0.786453	0.221478	0.297894
514	H	0.808253	0.239191	0.28385
515	C	0.736147	0.465786	0.026751
516	N	0.715241	0.473952	0.334844
517	C	0.726382	0.005171	0.31371
518	C	0.762346	0.031652	0.316731
519	N	0.783224	0.023628	0.008738
520	C	0.772449	0.492478	0.030292
521	H	0.708598	0.008945	0.295829
522	C	0.799463	0.489216	0.056691
523	O	0.790553	0.483621	0.10294
524	H	0.825686	0.512791	0.053006
525	H	0.801481	0.466764	0.044253
526	H	0.791531	0.505137	0.114911
527	N	0.722568	0.432638	0.044592
528	H	0.739415	0.427448	0.058646
529	N	0.774657	0.064212	0.29791
530	H	0.756949	0.068302	0.28386
531	C	0.530321	0.269572	0.026862
532	N	0.522166	0.240505	0.33495
533	C	0.990955	0.220434	0.313795
534	C	0.964477	0.229923	0.31679
535	N	0.972492	0.258821	0.008802
536	C	0.503631	0.279185	0.03038
537	H	0.987188	0.19888	0.295913
538	C	0.506886	0.30946	0.056777
539	O	0.512466	0.306142	0.103029
540	H	0.483314	0.312111	0.053076
541	H	0.529343	0.333932	0.044349
542	H	0.490942	0.285602	0.11499
543	N	0.563466	0.289142	0.044717
544	H	0.568657	0.311186	0.058753
545	N	0.931927	0.209684	0.297938
546	H	0.927847	0.187894	0.283869
547	C	0.676615	0.369192	0.382678
548	C	0.640001	0.343661	0.38304
549	C	0.626908	0.306638	0.382771
550	C	0.652446	0.295562	0.383074
551	C	0.68947	0.319492	0.716073
552	C	0.700553	0.35611	0.383064
553	H	0.643547	0.269119	0.380578
554	H	0.72699	0.373645	0.380435
555	H	0.622456	0.352558	0.380522
556	C	0.688027	0.405845	0.377052
557	C	0.714714	0.308085	0.710447
558	C	0.590253	0.281387	0.377195
559	O	0.748933	0.333285	0.369403
560	O	0.662829	0.414859	0.369303
561	O	0.581232	0.247167	0.369503
562	C	0.819544	0.127901	0.29177
563	C	0.855966	0.154017	0.291287
564	C	0.868248	0.190879	0.29173
565	C	0.84212	0.201175	0.291303
566	C	0.805258	0.1766	0.625053
567	C	0.79496	0.140175	0.291296
568	H	0.850436	0.227498	0.293828
569	H	0.768637	0.122174	0.293829
570	H	0.873973	0.145704	0.293851
571	C	0.808942	0.091503	0.297959
572	C	0.779461	0.187194	0.631274
573	C	0.904638	0.216679	0.29796
574	O	0.745508	0.161454	0.305998
575	O	0.834679	0.083294	0.306049
576	O	0.912835	0.250615	0.306101
577	C	0.726537	0.259971	0.360105
578	N	0.755608	0.280884	0.668202
579	C	0.775687	0.269749	0.647058
580	C	0.766204	0.233784	0.650062
581	N	0.737299	0.212898	0.342061
582	C	0.716927	0.223669	0.363627
583	H	0.797245	0.287539	0.629184
584	C	0.686651	0.196647	0.390019
585	O	0.68996	0.205543	0.436271
586	H	0.684004	0.170425	0.38632
587	H	0.662179	0.19463	0.377584
588	H	0.710502	0.204563	0.448237
589	N	0.706963	0.273542	0.37796
590	H	0.684923	0.256689	0.391999
591	N	0.786453	0.221478	0.631227
592	H	0.808253	0.239191	0.617184
593	C	0.736147	0.465786	0.360085
594	N	0.715241	0.473952	0.668176
595	C	0.726382	0.005171	0.647045
596	C	0.762346	0.031652	0.650065
597	N	0.783224	0.023628	0.342071
598	C	0.772449	0.492478	0.363624
599	H	0.708598	0.008945	0.629164
600	C	0.799463	0.489216	0.390025
601	O	0.790553	0.483621	0.436275
602	H	0.825686	0.512791	0.38634
603	H	0.801481	0.466764	0.377587
604	H	0.791531	0.505137	0.448244
605	N	0.722568	0.432638	0.377926
606	H	0.739415	0.427448	0.391979
607	N	0.774657	0.064212	0.631244
608	H	0.756949	0.068302	0.617194
609	C	0.530321	0.269572	0.360195
610	N	0.522166	0.240505	0.668285
611	C	0.990955	0.220434	0.647128
612	C	0.964477	0.229923	0.650125
613	N	0.972492	0.258821	0.342134
614	C	0.503631	0.279185	0.363714
615	H	0.987188	0.19888	0.629247
616	C	0.506886	0.30946	0.390112
617	O	0.512466	0.306142	0.436364
618	H	0.483314	0.312111	0.38641
619	H	0.529343	0.333932	0.377684
620	H	0.490942	0.285602	0.448324
621	N	0.563466	0.289142	0.378053
622	H	0.568657	0.311186	0.392086
623	N	0.931927	0.209684	0.631271
624	H	0.927847	0.187894	0.617204
625	C	0.676615	0.369192	0.71601
626	C	0.640001	0.343661	0.716376
627	C	0.626908	0.306638	0.716106
628	C	0.652446	0.295562	0.716409
629	C	0.68947	0.319492	0.049404
630	C	0.700553	0.35611	0.716399
631	H	0.643547	0.269119	0.713913
632	H	0.72699	0.373645	0.71377
633	H	0.622456	0.352558	0.713857
634	C	0.688027	0.405845	0.710388
635	C	0.714714	0.308085	0.04378
636	C	0.590253	0.281387	0.710527
637	O	0.748933	0.333285	0.702735
638	O	0.662829	0.414859	0.702638
639	O	0.581232	0.247167	0.702838
640	C	0.819544	0.127901	0.625103
641	C	0.855966	0.154017	0.624621
642	C	0.868248	0.190879	0.625063
643	C	0.84212	0.201175	0.624638
644	C	0.805258	0.1766	0.958385
645	C	0.79496	0.140175	0.624631
646	H	0.850436	0.227498	0.627163
647	H	0.768637	0.122174	0.627163
648	H	0.873973	0.145704	0.627187
649	C	0.808942	0.091503	0.631294
650	C	0.779461	0.187194	0.964606
651	C	0.904638	0.216679	0.631294
652	O	0.745508	0.161454	0.639332
653	O	0.834679	0.083294	0.639382
654	O	0.912835	0.250615	0.639435
655	C	0.726537	0.259971	0.69344
656	N	0.755608	0.280884	0.001535
657	C	0.775687	0.269749	0.980393
658	C	0.766204	0.233784	0.983394
659	N	0.737299	0.212898	0.675397
660	C	0.716927	0.223669	0.696963
661	H	0.797245	0.287539	0.962516
662	C	0.686651	0.196647	0.723354
663	O	0.68996	0.205543	0.769606
664	H	0.684004	0.170425	0.719655
665	H	0.662179	0.19463	0.710919
666	H	0.710502	0.204563	0.781572
667	N	0.706963	0.273542	0.711291
668	H	0.684923	0.256689	0.725331
669	N	0.786453	0.221478	0.964563
670	H	0.808253	0.239191	0.950516
671	C	0.736147	0.465786	0.693417
672	N	0.715241	0.473952	0.001509
673	C	0.726382	0.005171	0.980377
674	C	0.762346	0.031652	0.983397
675	N	0.783224	0.023628	0.675406
676	C	0.772449	0.492478	0.696959
677	H	0.708598	0.008945	0.962496
678	C	0.799463	0.489216	0.723357
679	O	0.790553	0.483621	0.769606
680	H	0.825686	0.512791	0.719672
681	H	0.801481	0.466764	0.710919
682	H	0.791531	0.505137	0.781579
683	N	0.722568	0.432638	0.711258
684	H	0.739415	0.427448	0.725314
685	N	0.774657	0.064212	0.964576
686	H	0.756949	0.068302	0.950526
687	C	0.530321	0.269572	0.69353
688	N	0.522166	0.240505	0.001617
689	C	0.990955	0.220434	0.980463
690	C	0.964477	0.229923	0.983457
691	N	0.972492	0.258821	0.67547
692	C	0.503631	0.279185	0.697046
693	H	0.987188	0.19888	0.962579
694	C	0.506886	0.30946	0.723444
695	O	0.512466	0.306142	0.769696
696	H	0.483314	0.312111	0.719745
697	H	0.529343	0.333932	0.711016
698	H	0.490942	0.285602	0.781659
699	N	0.563466	0.289142	0.711384
700	H	0.568657	0.311186	0.725421
701	N	0.931927	0.209684	0.964606
702	H	0.927847	0.187894	0.950536
703	C	0.676615	0.869192	0.049344
704	C	0.640002	0.843661	0.049708
705	C	0.626911	0.80664	0.049439
706	C	0.652448	0.795564	0.049741
707	C	0.689471	0.819495	0.382738
708	C	0.700553	0.85611	0.04973
709	H	0.643547	0.769119	0.047246
710	H	0.72699	0.873645	0.047102
711	H	0.622457	0.852559	0.047189
712	C	0.688027	0.905845	0.04372
713	C	0.714716	0.808085	0.377115
714	C	0.590255	0.78139	0.043861
715	O	0.748933	0.833285	0.036068
716	O	0.662829	0.914859	0.03597
717	O	0.581233	0.747168	0.036169
718	C	0.819543	0.6279	0.958438
719	C	0.855968	0.654017	0.957953
720	C	0.868248	0.690879	0.958398
721	C	0.842122	0.701176	0.95797
722	C	0.805259	0.676601	0.291718
723	C	0.794961	0.640177	0.957963
724	H	0.850437	0.7275	0.960495
725	H	0.768637	0.622173	0.960495
726	H	0.873974	0.645706	0.960518
727	C	0.808943	0.591505	0.964626
728	C	0.779462	0.687195	0.297939
729	C	0.904637	0.716678	0.964626
730	O	0.745509	0.661454	0.972664
731	O	0.834679	0.583294	0.972717
732	O	0.912836	0.750616	0.97277
733	C	0.726537	0.759972	0.026773
734	N	0.75561	0.780887	0.33487
735	C	0.775687	0.76975	0.313724
736	C	0.766203	0.733784	0.316727
737	N	0.737302	0.712899	0.008729
738	C	0.716927	0.72367	0.030294
739	H	0.797245	0.787539	0.295849
740	C	0.68665	0.696646	0.056685
741	O	0.689963	0.705544	0.102938
742	H	0.684004	0.670426	0.052987
743	H	0.662182	0.694629	0.044251
744	H	0.710502	0.704563	0.114904
745	N	0.706965	0.773542	0.044625
746	H	0.684923	0.756688	0.058664
747	N	0.786453	0.721478	0.297894
748	H	0.808253	0.73919	0.28385
749	C	0.736147	0.965786	0.026751
750	N	0.715242	0.973952	0.334844
751	C	0.726382	0.505171	0.31371
752	C	0.762348	0.531651	0.316731
753	N	0.783227	0.523628	0.008738
754	C	0.772449	0.992478	0.030292
755	H	0.7086	0.508945	0.295829
756	C	0.799463	0.989216	0.056691
757	O	0.790553	0.983621	0.10294
758	H	0.825685	0.01279	0.053006
759	H	0.801482	0.966767	0.044253
760	H	0.791531	0.005137	0.114911
761	N	0.722568	0.932638	0.044592
762	H	0.739417	0.927448	0.058646
763	N	0.774657	0.564211	0.29791
764	H	0.756948	0.568301	0.28386
765	C	0.530322	0.769572	0.026862
766	N	0.522166	0.740505	0.33495
767	C	0.990955	0.720434	0.313795
768	C	0.96448	0.729925	0.31679
769	N	0.972492	0.758822	0.008802
770	C	0.503632	0.779185	0.03038
771	H	0.987188	0.698881	0.295913
772	C	0.506888	0.80946	0.056777
773	O	0.512467	0.806142	0.103029
774	H	0.483315	0.812111	0.053076
775	H	0.529343	0.833932	0.044349
776	H	0.490944	0.785602	0.11499
777	N	0.563465	0.789143	0.044717
778	H	0.568658	0.811186	0.058753
779	N	0.931929	0.709684	0.297938
780	H	0.92785	0.687895	0.283869
781	C	0.676615	0.869192	0.382678
782	C	0.640002	0.843661	0.38304
783	C	0.626911	0.80664	0.382771
784	C	0.652448	0.795564	0.383074
785	C	0.689471	0.819495	0.716073
786	C	0.700553	0.85611	0.383064
787	H	0.643547	0.769119	0.380578
788	H	0.72699	0.873645	0.380435
789	H	0.622457	0.852559	0.380522
790	C	0.688027	0.905845	0.377052
791	C	0.714716	0.808085	0.710447
792	C	0.590255	0.78139	0.377195
793	O	0.748933	0.833285	0.369403
794	O	0.662829	0.914859	0.369303
795	O	0.581233	0.747168	0.369503
796	C	0.819543	0.6279	0.29177
797	C	0.855968	0.654017	0.291287
798	C	0.868248	0.690879	0.29173
799	C	0.842122	0.701176	0.291303
800	C	0.805259	0.676601	0.625053
801	C	0.794961	0.640177	0.291296
802	H	0.850437	0.7275	0.293828
803	H	0.768637	0.622173	0.293829
804	H	0.873974	0.645706	0.293851
805	C	0.808943	0.591505	0.297959
806	C	0.779462	0.687195	0.631274
807	C	0.904637	0.716678	0.29796
808	O	0.745509	0.661454	0.305998
809	O	0.834679	0.583294	0.306049
810	O	0.912836	0.750616	0.306101
811	C	0.726537	0.759972	0.360105
812	N	0.75561	0.780887	0.668202
813	C	0.775687	0.76975	0.647058
814	C	0.766203	0.733784	0.650062
815	N	0.737302	0.712899	0.342061
816	C	0.716927	0.72367	0.363627
817	H	0.797245	0.787539	0.629184
818	C	0.68665	0.696646	0.390019
819	O	0.689963	0.705544	0.436271
820	H	0.684004	0.670426	0.38632
821	H	0.662182	0.694629	0.377584
822	H	0.710502	0.704563	0.448237
823	N	0.706965	0.773542	0.37796
824	H	0.684923	0.756688	0.391999
825	N	0.786453	0.721478	0.631227
826	H	0.808253	0.73919	0.617184
827	C	0.736147	0.965786	0.360085
828	N	0.715242	0.973952	0.668176
829	C	0.726382	0.505171	0.647045
830	C	0.762348	0.531651	0.650065
831	N	0.783227	0.523628	0.342071
832	C	0.772449	0.992478	0.363624
833	H	0.7086	0.508945	0.629164
834	C	0.799463	0.989216	0.390025
835	O	0.790553	0.983621	0.436275
836	H	0.825685	0.01279	0.38634
837	H	0.801482	0.966767	0.377587
838	H	0.791531	0.005137	0.448244
839	N	0.722568	0.932638	0.377926
840	H	0.739417	0.927448	0.391979
841	N	0.774657	0.564211	0.631244
842	H	0.756948	0.568301	0.617194
843	C	0.530322	0.769572	0.360195
844	N	0.522166	0.740505	0.668285
845	C	0.990955	0.720434	0.647128
846	C	0.96448	0.729925	0.650125
847	N	0.972492	0.758822	0.342134
848	C	0.503632	0.779185	0.363714
849	H	0.987188	0.698881	0.629247
850	C	0.506888	0.80946	0.390112
851	O	0.512467	0.806142	0.436364
852	H	0.483315	0.812111	0.38641
853	H	0.529343	0.833932	0.377684
854	H	0.490944	0.785602	0.448324
855	N	0.563465	0.789143	0.378053
856	H	0.568658	0.811186	0.392086
857	N	0.931929	0.709684	0.631271
858	H	0.92785	0.687895	0.617204
859	C	0.676615	0.869192	0.71601
860	C	0.640002	0.843661	0.716376
861	C	0.626911	0.80664	0.716106
862	C	0.652448	0.795564	0.716409
863	C	0.689471	0.819495	0.049404
864	C	0.700553	0.85611	0.716395
865	H	0.643547	0.769119	0.713913
866	H	0.72699	0.873645	0.71377
867	H	0.622457	0.852559	0.713857
868	C	0.688027	0.905845	0.710388
869	C	0.714716	0.808085	0.04378
870	C	0.590255	0.78139	0.710527
871	O	0.748933	0.833285	0.702735
872	O	0.662829	0.914859	0.702638
873	O	0.581233	0.747168	0.702838
874	C	0.819543	0.6279	0.625103
875	C	0.855968	0.654017	0.624621
876	C	0.868248	0.690879	0.625063
877	C	0.842122	0.701176	0.624638
878	C	0.805259	0.676601	0.958385
879	C	0.794961	0.640177	0.624631
880	H	0.850437	0.7275	0.627163
881	H	0.768637	0.622173	0.627163
882	H	0.873974	0.645706	0.627187
883	C	0.808943	0.591505	0.631294
884	C	0.779462	0.687195	0.964606
885	C	0.904637	0.716678	0.631294
886	O	0.745509	0.661454	0.639332
887	O	0.834679	0.583294	0.639382
888	O	0.912836	0.750616	0.639435
889	C	0.726537	0.759972	0.69344
890	N	0.75561	0.780887	0.001535
891	C	0.775687	0.76975	0.980393
892	C	0.766203	0.733784	0.983394
893	N	0.737302	0.712899	0.675397
894	C	0.716927	0.72367	0.696963
895	H	0.797245	0.787539	0.962516
896	C	0.68665	0.696646	0.723354
897	O	0.689963	0.705544	0.769606
898	H	0.684004	0.670426	0.719655
899	H	0.662182	0.694629	0.710919
900	H	0.710502	0.704563	0.781572
901	N	0.706965	0.773542	0.711291
902	H	0.684923	0.756688	0.725331
903	N	0.786453	0.721478	0.964563
904	H	0.808253	0.73919	0.950516
905	C	0.736147	0.965786	0.693417
906	N	0.715242	0.973952	0.001509
907	C	0.726382	0.505171	0.980377
908	C	0.762348	0.531651	0.983397
909	N	0.783227	0.523628	0.675406
910	C	0.772449	0.992478	0.696959
911	H	0.7086	0.508945	0.962496
912	C	0.799463	0.989216	0.723357
913	O	0.790553	0.983621	0.769606
914	H	0.825685	0.01279	0.719672
915	H	0.801482	0.966767	0.710919
916	H	0.791531	0.005137	0.781579
917	N	0.722568	0.932638	0.711258
918	H	0.739417	0.927448	0.725314
919	N	0.774657	0.564211	0.964576
920	H	0.756948	0.568301	0.950526
921	C	0.530322	0.769572	0.69353
922	N	0.522166	0.740505	0.001617
923	C	0.990955	0.720434	0.980463
924	C	0.96448	0.729925	0.983457
925	N	0.972492	0.758822	0.67547
926	C	0.503632	0.779185	0.697046
927	H	0.987188	0.698881	0.962579
928	C	0.506888	0.80946	0.723444
929	O	0.512467	0.806142	0.769696
930	H	0.483315	0.812111	0.719745
931	H	0.529343	0.833932	0.711016
932	H	0.490944	0.785602	0.781659
933	N	0.563465	0.789143	0.711384
934	H	0.568658	0.811186	0.725421
935	N	0.931929	0.709684	0.964606
936	H	0.92785	0.687895	0.950536
