data_C468H360N144O72_2018-02-15_10:32:48
#******************************************
#
# CIF file created by Zeo++
# Zeo++ is an open source package to
# analyze microporous materials
#
#*******************************************

_cell_length_a		43.5931   
_cell_length_b		43.5931   
_cell_length_c		30.0836   
_cell_angle_alpha		90   
_cell_angle_beta		90   
_cell_angle_gamma		120   

_symmetry_space_group_name_H-M		'P1'
_symmetry_Int_Tables_number		1
_symmetry_cell_setting		Monoclinic

loop_
_symmetry_equiv_pos_as_xyz
'+x,+y,+z'

loop_
_atom_site_label
_atom_site_type_symbol
_atom_site_fract_x
_atom_site_fract_y
_atom_site_fract_z
1	C	0.173233	0.3684	0.040307
2	C	0.137649	0.340341	0.040308
3	C	0.128127	0.304134	0.040349
4	C	0.156189	0.296612	0.040295
5	C	0.192397	0.323298	0.373649
6	C	0.199924	0.358885	0.040324
7	H	0.149843	0.270794	0.037544
8	H	0.225738	0.378351	0.037494
9	H	0.118174	0.346685	0.037578
10	C	0.181247	0.404191	0.03586
11	C	0.220171	0.315283	0.369155
12	C	0.092336	0.276356	0.035895
13	O	0.253761	0.342513	0.030404
14	O	0.154019	0.410548	0.030395
15	O	0.085974	0.242763	0.030493
16	C	0.319108	0.128029	0.956299
17	C	0.355697	0.153458	0.95579
18	C	0.368521	0.190383	0.956262
19	C	0.343079	0.201532	0.955797
20	C	0.306154	0.177438	0.289567
21	C	0.295002	0.140846	0.95579
22	H	0.351833	0.227968	0.958652
23	H	0.268565	0.12317	0.958649
24	H	0.373379	0.144708	0.958706
25	C	0.307505	0.09161	0.963406
26	C	0.281331	0.189032	0.296669
27	C	0.404934	0.215206	0.963399
28	O	0.247856	0.164501	0.975466
29	O	0.33203	0.08267	0.975572
30	O	0.413863	0.248667	0.975579
31	C	0.2302	0.234978	0.03466
32	C	0.236	0.269037	0.022336
33	C	0.261357	0.286292	0.321468
34	N	0.277844	0.270571	0.301636
35	C	0.270912	0.237567	0.312773
36	N	0.24735	0.220818	0.012716
37	H	0.266401	0.309983	0.30865
38	C	0.206255	0.213002	0.070862
39	C	0.219624	0.1965	0.105691
40	C	0.215653	0.228347	0.118285
41	H	0.177826	0.198215	0.064198
42	H	0.193371	0.222321	0.140194
43	H	0.240631	0.253062	0.122984
44	H	0.246938	0.202165	0.102709
45	H	0.199689	0.171243	0.119815
46	N	0.215701	0.282075	0.039641
47	H	0.195084	0.265379	0.056445
48	N	0.28892	0.223332	0.292909
49	H	0.308825	0.239247	0.274248
50	C	0.261538	0.494542	0.034759
51	C	0.227486	0.466279	0.022421
52	C	0.210223	0.474387	0.321566
53	N	0.22597	0.006584	0.301702
54	C	0.258965	0.032661	0.312858
55	N	0.275703	0.025855	0.01282
56	H	0.186595	0.45571	0.308641
57	C	0.283505	0.492563	0.070966
58	C	0.299976	0.522418	0.10582
59	C	0.268141	0.486582	0.118382
60	H	0.298314	0.478945	0.064294
61	H	0.274175	0.470326	0.140279
62	H	0.243415	0.486823	0.123074
63	H	0.294293	0.044055	0.102853
64	H	0.325235	0.527753	0.119953
65	N	0.214457	0.432928	0.039673
66	H	0.231157	0.429002	0.056462
67	N	0.273205	0.064898	0.292977
68	H	0.257295	0.068881	0.274296
69	C	0.001995	0.266317	0.034766
70	C	0.030257	0.26052	0.022447
71	C	0.022164	0.23518	0.321556
72	N	0.489957	0.218697	0.301718
73	C	0.46388	0.225612	0.312876
74	N	0.470686	0.249171	0.012819
75	H	0.040824	0.230164	0.308726
76	C	0.003968	0.290265	0.070967
77	C	0.9741	0.276894	0.1058
78	C	0.009921	0.280872	0.11839
79	H	0.017605	0.318692	0.064299
80	H	0.026178	0.303157	0.140294
81	H	0.009661	0.255895	0.12309
82	H	0.452452	0.249582	0.102824
83	H	0.968777	0.296831	0.119925
84	N	0.063601	0.280827	0.039727
85	H	0.067525	0.301446	0.05653
86	N	0.431647	0.207623	0.292977
87	H	0.427667	0.187729	0.274298
88	C	0.173233	0.3684	0.373639
89	C	0.137649	0.340341	0.373642
90	C	0.128127	0.304134	0.373682
91	C	0.156189	0.296612	0.373629
92	C	0.192397	0.323298	0.706984
93	C	0.199924	0.358885	0.373659
94	H	0.149843	0.270794	0.370877
95	H	0.225738	0.378351	0.370827
96	H	0.118174	0.346685	0.37091
97	C	0.181247	0.404191	0.369195
98	C	0.220171	0.315283	0.702486
99	C	0.092336	0.276356	0.369228
100	O	0.253761	0.342513	0.363737
101	O	0.154019	0.410548	0.36373
102	O	0.085974	0.242763	0.363826
103	C	0.319108	0.128029	0.289633
104	C	0.355697	0.153458	0.289125
105	C	0.368521	0.190383	0.289595
106	C	0.343079	0.201532	0.289131
107	C	0.306154	0.177438	0.622901
108	C	0.295002	0.140846	0.289125
109	H	0.351833	0.227968	0.291987
110	H	0.268565	0.12317	0.291983
111	H	0.373379	0.144708	0.29204
112	C	0.307505	0.09161	0.29674
113	C	0.281331	0.189032	0.630001
114	C	0.404934	0.215206	0.296734
115	O	0.247856	0.164501	0.308799
116	O	0.33203	0.08267	0.308906
117	O	0.413863	0.248667	0.308912
118	C	0.2302	0.234978	0.367991
119	C	0.236	0.269037	0.355669
120	C	0.261357	0.286292	0.654802
121	N	0.277844	0.270571	0.634971
122	C	0.270912	0.237567	0.646107
123	N	0.24735	0.220818	0.346049
124	H	0.266401	0.309983	0.641985
125	C	0.206255	0.213002	0.404194
126	C	0.219624	0.1965	0.439024
127	C	0.215653	0.228347	0.451618
128	H	0.177826	0.198215	0.397532
129	H	0.193371	0.222321	0.473527
130	H	0.240631	0.253062	0.456319
131	H	0.246938	0.202165	0.436042
132	H	0.199689	0.171243	0.453148
133	N	0.215701	0.282075	0.372974
134	H	0.195084	0.265379	0.389777
135	N	0.28892	0.223332	0.626242
136	H	0.308825	0.239247	0.607581
137	C	0.261538	0.494542	0.368091
138	C	0.227486	0.466279	0.355756
139	C	0.210223	0.474387	0.654899
140	N	0.22597	0.006584	0.635034
141	C	0.258965	0.032661	0.646193
142	N	0.275703	0.025855	0.346152
143	H	0.186595	0.45571	0.641975
144	C	0.283505	0.492563	0.4043
145	C	0.299976	0.522418	0.439153
146	C	0.268141	0.486582	0.451715
147	H	0.298314	0.478945	0.397626
148	H	0.274175	0.470326	0.473611
149	H	0.243415	0.486823	0.456408
150	H	0.294293	0.044055	0.436185
151	H	0.325235	0.527753	0.453287
152	N	0.214457	0.432928	0.373007
153	H	0.231157	0.429002	0.389794
154	N	0.273205	0.064898	0.626312
155	H	0.257295	0.068881	0.60763
156	C	0.001995	0.266317	0.368101
157	C	0.030257	0.26052	0.355779
158	C	0.022164	0.23518	0.654889
159	N	0.489957	0.218697	0.635051
160	C	0.46388	0.225612	0.64621
161	N	0.470686	0.249171	0.346152
162	H	0.040824	0.230164	0.642058
163	C	0.003968	0.290265	0.4043
164	C	0.9741	0.276894	0.439133
165	C	0.009921	0.280872	0.451725
166	H	0.017605	0.318692	0.397632
167	H	0.026178	0.303157	0.473627
168	H	0.009661	0.255895	0.456422
169	H	0.452452	0.249582	0.436158
170	H	0.968777	0.296831	0.453257
171	N	0.063601	0.280827	0.373061
172	H	0.067525	0.301446	0.389864
173	N	0.431647	0.207623	0.626312
174	H	0.427667	0.187729	0.60763
175	C	0.173233	0.3684	0.706974
176	C	0.137649	0.340341	0.706974
177	C	0.128127	0.304134	0.707014
178	C	0.156189	0.296612	0.70696
179	C	0.192397	0.323298	0.040317
180	C	0.199924	0.358885	0.70699
181	H	0.149843	0.270794	0.704211
182	H	0.225738	0.378351	0.704162
183	H	0.118174	0.346685	0.704245
184	C	0.181247	0.404191	0.702526
185	C	0.220171	0.315283	0.035822
186	C	0.092336	0.276356	0.702563
187	O	0.253761	0.342513	0.697071
188	O	0.154019	0.410548	0.697061
189	O	0.085974	0.242763	0.697158
190	C	0.319108	0.128029	0.622964
191	C	0.355697	0.153458	0.622459
192	C	0.368521	0.190383	0.622928
193	C	0.343079	0.201532	0.622466
194	C	0.306154	0.177438	0.956233
195	C	0.295002	0.140846	0.622459
196	H	0.351833	0.227968	0.625321
197	H	0.268565	0.12317	0.625318
198	H	0.373379	0.144708	0.625374
199	C	0.307505	0.09161	0.630071
200	C	0.281331	0.189032	0.963336
201	C	0.404934	0.215206	0.630068
202	O	0.247856	0.164501	0.642131
203	O	0.33203	0.08267	0.642237
204	O	0.413863	0.248667	0.642244
205	C	0.2302	0.234978	0.701326
206	C	0.236	0.269037	0.689004
207	C	0.261357	0.286292	0.988134
208	N	0.277844	0.270571	0.968302
209	C	0.270912	0.237567	0.979438
210	N	0.24735	0.220818	0.679381
211	H	0.266401	0.309983	0.975316
212	C	0.206255	0.213002	0.737529
213	C	0.219624	0.1965	0.772358
214	C	0.215653	0.228347	0.784953
215	H	0.177826	0.198215	0.730864
216	H	0.193371	0.222321	0.806859
217	H	0.240631	0.253062	0.78965
218	H	0.246938	0.202165	0.769376
219	H	0.199689	0.171243	0.786482
220	N	0.215701	0.282075	0.706306
221	H	0.195084	0.265379	0.723112
222	N	0.28892	0.223332	0.959577
223	H	0.308825	0.239247	0.940915
224	C	0.261538	0.494542	0.701426
225	C	0.227486	0.466279	0.689087
226	C	0.210223	0.474387	0.988233
227	N	0.22597	0.006584	0.968369
228	C	0.258965	0.032661	0.979524
229	N	0.275703	0.025855	0.679487
230	H	0.186595	0.45571	0.975309
231	C	0.283505	0.492563	0.737632
232	C	0.299976	0.522418	0.772488
233	C	0.268141	0.486582	0.785046
234	H	0.298314	0.478945	0.73096
235	H	0.274175	0.470326	0.806945
236	H	0.243415	0.486823	0.78974
237	H	0.294293	0.044055	0.769519
238	H	0.325235	0.527753	0.786618
239	N	0.214457	0.432928	0.706339
240	H	0.231157	0.429002	0.723129
241	N	0.273205	0.064898	0.959643
242	H	0.257295	0.068881	0.940962
243	C	0.001995	0.266317	0.701432
244	C	0.030257	0.26052	0.689113
245	C	0.022164	0.23518	0.988223
246	N	0.489957	0.218697	0.968385
247	C	0.46388	0.225612	0.979541
248	N	0.470686	0.249171	0.679484
249	H	0.040824	0.230164	0.975393
250	C	0.003968	0.290265	0.737632
251	C	0.9741	0.276894	0.772468
252	C	0.009921	0.280872	0.785056
253	H	0.017605	0.318692	0.730967
254	H	0.026178	0.303157	0.806962
255	H	0.009661	0.255895	0.789756
256	H	0.452452	0.249582	0.76949
257	H	0.968777	0.296831	0.786592
258	N	0.063601	0.280827	0.706392
259	H	0.067525	0.301446	0.723195
260	N	0.431647	0.207623	0.959643
261	H	0.427667	0.187729	0.940965
262	C	0.173232	0.868398	0.040307
263	C	0.137647	0.840339	0.040308
264	C	0.128125	0.804133	0.040349
265	C	0.156189	0.796613	0.040295
266	C	0.192396	0.823297	0.373649
267	C	0.199924	0.858886	0.040324
268	H	0.149843	0.770795	0.037544
269	H	0.225737	0.87835	0.037494
270	H	0.118174	0.846686	0.037578
271	C	0.181247	0.904192	0.03586
272	C	0.220169	0.815281	0.369155
273	C	0.092336	0.776354	0.035895
274	O	0.25376	0.842511	0.030404
275	O	0.154019	0.910549	0.030395
276	O	0.085973	0.742762	0.030493
277	C	0.319106	0.628029	0.956299
278	C	0.355697	0.653457	0.95579
279	C	0.368521	0.690382	0.956262
280	C	0.343079	0.701531	0.955797
281	C	0.306153	0.677437	0.289567
282	C	0.295002	0.640846	0.95579
283	H	0.351833	0.727969	0.958652
284	H	0.268564	0.623171	0.958649
285	H	0.373379	0.644708	0.958706
286	C	0.307504	0.59161	0.963406
287	C	0.28133	0.689031	0.296669
288	C	0.404933	0.715207	0.963399
289	O	0.247855	0.6645	0.975466
290	O	0.33203	0.58267	0.975572
291	O	0.413862	0.748666	0.975579
292	C	0.230199	0.734977	0.03466
293	C	0.236	0.769038	0.022336
294	C	0.261357	0.786293	0.321468
295	N	0.277843	0.770569	0.301636
296	C	0.270911	0.737568	0.312773
297	N	0.247349	0.720817	0.012716
298	H	0.266399	0.809981	0.30865
299	C	0.206255	0.713003	0.070862
300	C	0.219624	0.696501	0.105691
301	C	0.215653	0.728347	0.118285
302	H	0.177825	0.698214	0.064198
303	H	0.193371	0.722321	0.140194
304	H	0.24063	0.753061	0.122984
305	H	0.246937	0.702164	0.102709
306	H	0.199688	0.671241	0.119815
307	N	0.215701	0.782076	0.039641
308	H	0.195084	0.76538	0.056445
309	N	0.288919	0.72333	0.292909
310	H	0.308824	0.739247	0.274248
311	C	0.261538	0.994543	0.034759
312	C	0.227485	0.966277	0.022421
313	C	0.210221	0.974385	0.321566
314	N	0.225969	0.506583	0.301702
315	C	0.258964	0.532661	0.312858
316	N	0.275702	0.525853	0.01282
317	H	0.186594	0.955708	0.308641
318	C	0.283505	0.992564	0.070966
319	C	0.299978	0.022419	0.10582
320	C	0.268141	0.986583	0.118382
321	H	0.298314	0.978946	0.064294
322	H	0.274175	0.970327	0.140279
323	H	0.243414	0.986821	0.123074
324	H	0.294293	0.544056	0.102853
325	H	0.325235	0.027752	0.119953
326	N	0.214456	0.932926	0.039673
327	H	0.231156	0.929003	0.056462
328	N	0.273204	0.564897	0.292977
329	H	0.257295	0.568881	0.274296
330	C	0.001995	0.766318	0.034766
331	C	0.030256	0.76052	0.022447
332	C	0.022162	0.735179	0.321556
333	N	0.489957	0.718698	0.301718
334	C	0.463878	0.725611	0.312876
335	N	0.470684	0.74917	0.012819
336	H	0.040824	0.730164	0.308726
337	C	0.003967	0.790266	0.070967
338	C	0.974099	0.776895	0.1058
339	C	0.009921	0.780873	0.11839
340	H	0.017605	0.818693	0.064299
341	H	0.026178	0.803155	0.140294
342	H	0.009661	0.755895	0.12309
343	H	0.452453	0.749583	0.102824
344	H	0.968778	0.796832	0.119925
345	N	0.063599	0.780826	0.039727
346	H	0.067525	0.801447	0.05653
347	N	0.431647	0.707623	0.292977
348	H	0.427666	0.687728	0.274298
349	C	0.173232	0.868398	0.373639
350	C	0.137647	0.840339	0.373642
351	C	0.128125	0.804133	0.373682
352	C	0.156189	0.796613	0.373629
353	C	0.192396	0.823297	0.706984
354	C	0.199924	0.858886	0.373659
355	H	0.149843	0.770795	0.370877
356	H	0.225737	0.87835	0.370827
357	H	0.118174	0.846686	0.37091
358	C	0.181247	0.904192	0.369195
359	C	0.220169	0.815281	0.702486
360	C	0.092336	0.776354	0.369228
361	O	0.25376	0.842511	0.363737
362	O	0.154019	0.910549	0.36373
363	O	0.085973	0.742762	0.363826
364	C	0.319106	0.628029	0.289633
365	C	0.355697	0.653457	0.289125
366	C	0.368521	0.690382	0.289595
367	C	0.343079	0.701531	0.289131
368	C	0.306153	0.677437	0.622901
369	C	0.295002	0.640846	0.289125
370	H	0.351833	0.727969	0.291987
371	H	0.268564	0.623171	0.291983
372	H	0.373379	0.644708	0.29204
373	C	0.307504	0.59161	0.29674
374	C	0.28133	0.689031	0.630001
375	C	0.404933	0.715207	0.296734
376	O	0.247855	0.6645	0.308799
377	O	0.33203	0.58267	0.308906
378	O	0.413862	0.748666	0.308912
379	C	0.230199	0.734977	0.367991
380	C	0.236	0.769038	0.355669
381	C	0.261357	0.786293	0.654802
382	N	0.277843	0.770569	0.634971
383	C	0.270911	0.737568	0.646107
384	N	0.247349	0.720817	0.346049
385	H	0.266399	0.809981	0.641985
386	C	0.206255	0.713003	0.404194
387	C	0.219624	0.696501	0.439024
388	C	0.215653	0.728347	0.451618
389	H	0.177825	0.698214	0.397532
390	H	0.193371	0.722321	0.473527
391	H	0.24063	0.753061	0.456319
392	H	0.246937	0.702164	0.436042
393	H	0.199688	0.671241	0.453148
394	N	0.215701	0.782076	0.372974
395	H	0.195084	0.76538	0.389777
396	N	0.288919	0.72333	0.626242
397	H	0.308824	0.739247	0.607581
398	C	0.261538	0.994543	0.368091
399	C	0.227485	0.966277	0.355756
400	C	0.210221	0.974385	0.654899
401	N	0.225969	0.506583	0.635034
402	C	0.258964	0.532661	0.646193
403	N	0.275702	0.525853	0.346152
404	H	0.186594	0.955708	0.641975
405	C	0.283505	0.992564	0.4043
406	C	0.299978	0.022419	0.439153
407	C	0.268141	0.986583	0.451715
408	H	0.298314	0.978946	0.397626
409	H	0.274175	0.970327	0.473611
410	H	0.243414	0.986821	0.456408
411	H	0.294293	0.544056	0.436185
412	H	0.325235	0.027752	0.453287
413	N	0.214456	0.932926	0.373007
414	H	0.231156	0.929003	0.389794
415	N	0.273204	0.564897	0.626312
416	H	0.257295	0.568881	0.60763
417	C	0.001995	0.766318	0.368101
418	C	0.030256	0.76052	0.355779
419	C	0.022162	0.735179	0.654889
420	N	0.489957	0.718698	0.635051
421	C	0.463878	0.725611	0.64621
422	N	0.470684	0.74917	0.346152
423	H	0.040824	0.730164	0.642058
424	C	0.003967	0.790266	0.4043
425	C	0.974099	0.776895	0.439133
426	C	0.009921	0.780873	0.451725
427	H	0.017605	0.818693	0.397632
428	H	0.026178	0.803155	0.473627
429	H	0.009661	0.755895	0.456422
430	H	0.452453	0.749583	0.436158
431	H	0.968778	0.796832	0.453257
432	N	0.063599	0.780826	0.373061
433	H	0.067525	0.801447	0.389864
434	N	0.431647	0.707623	0.626312
435	H	0.427666	0.687728	0.60763
436	C	0.173232	0.868398	0.706974
437	C	0.137647	0.840339	0.706974
438	C	0.128125	0.804133	0.707014
439	C	0.156189	0.796613	0.70696
440	C	0.192396	0.823297	0.040317
441	C	0.199924	0.858886	0.70699
442	H	0.149843	0.770795	0.704211
443	H	0.225737	0.87835	0.704162
444	H	0.118174	0.846686	0.704245
445	C	0.181247	0.904192	0.702526
446	C	0.220169	0.815281	0.035822
447	C	0.092336	0.776354	0.702563
448	O	0.25376	0.842511	0.697071
449	O	0.154019	0.910549	0.697061
450	O	0.085973	0.742762	0.697158
451	C	0.319106	0.628029	0.622964
452	C	0.355697	0.653457	0.622459
453	C	0.368521	0.690382	0.622928
454	C	0.343079	0.701531	0.622466
455	C	0.306153	0.677437	0.956233
456	C	0.295002	0.640846	0.622459
457	H	0.351833	0.727969	0.625321
458	H	0.268564	0.623171	0.625318
459	H	0.373379	0.644708	0.625374
460	C	0.307504	0.59161	0.630071
461	C	0.28133	0.689031	0.963336
462	C	0.404933	0.715207	0.630068
463	O	0.247855	0.6645	0.642131
464	O	0.33203	0.58267	0.642237
465	O	0.413862	0.748666	0.642244
466	C	0.230199	0.734977	0.701326
467	C	0.236	0.769038	0.689004
468	C	0.261357	0.786293	0.988134
469	N	0.277843	0.770569	0.968302
470	C	0.270911	0.737568	0.979438
471	N	0.247349	0.720817	0.679381
472	H	0.266399	0.809981	0.975316
473	C	0.206255	0.713003	0.737529
474	C	0.219624	0.696501	0.772358
475	C	0.215653	0.728347	0.784953
476	H	0.177825	0.698214	0.730864
477	H	0.193371	0.722321	0.806859
478	H	0.24063	0.753061	0.78965
479	H	0.246937	0.702164	0.769376
480	H	0.199688	0.671241	0.786482
481	N	0.215701	0.782076	0.706306
482	H	0.195084	0.76538	0.723112
483	N	0.288919	0.72333	0.959577
484	H	0.308824	0.739247	0.940915
485	C	0.261538	0.994543	0.701426
486	C	0.227485	0.966277	0.689087
487	C	0.210221	0.974385	0.988233
488	N	0.225969	0.506583	0.968369
489	C	0.258964	0.532661	0.979524
490	N	0.275702	0.525853	0.679487
491	H	0.186594	0.955708	0.975309
492	C	0.283505	0.992564	0.737632
493	C	0.299978	0.022419	0.772488
494	C	0.268141	0.986583	0.785046
495	H	0.298314	0.978946	0.73096
496	H	0.274175	0.970327	0.806945
497	H	0.243414	0.986821	0.78974
498	H	0.294293	0.544056	0.769519
499	H	0.325235	0.027752	0.786618
500	N	0.214456	0.932926	0.706339
501	H	0.231156	0.929003	0.723129
502	N	0.273204	0.564897	0.959643
503	H	0.257295	0.568881	0.940962
504	C	0.001995	0.766318	0.701432
505	C	0.030256	0.76052	0.689113
506	C	0.022162	0.735179	0.988223
507	N	0.489957	0.718698	0.968385
508	C	0.463878	0.725611	0.979541
509	N	0.470684	0.74917	0.679487
510	H	0.040824	0.730164	0.975393
511	C	0.003967	0.790266	0.737632
512	C	0.974099	0.776895	0.772468
513	C	0.009921	0.780873	0.785056
514	H	0.017605	0.818693	0.730967
515	H	0.026178	0.803155	0.806962
516	H	0.009661	0.755895	0.789756
517	H	0.452453	0.749583	0.76949
518	H	0.968778	0.796832	0.786592
519	N	0.063599	0.780826	0.706392
520	H	0.067525	0.801447	0.723195
521	N	0.431647	0.707623	0.959643
522	H	0.427666	0.687728	0.940965
523	C	0.673233	0.3684	0.040307
524	C	0.637648	0.340341	0.040308
525	C	0.628126	0.304134	0.040349
526	C	0.656189	0.296612	0.040295
527	C	0.692396	0.323298	0.373649
528	C	0.699924	0.358885	0.040324
529	H	0.649843	0.270794	0.037544
530	H	0.725737	0.378351	0.037494
531	H	0.618174	0.346685	0.037578
532	C	0.681246	0.404191	0.03586
533	C	0.720171	0.315283	0.369155
534	C	0.592337	0.276356	0.035895
535	O	0.753761	0.342513	0.030404
536	O	0.654019	0.410548	0.030395
537	O	0.585973	0.242763	0.030493
538	C	0.819107	0.128029	0.956299
539	C	0.855698	0.153458	0.95579
540	C	0.868522	0.190383	0.956262
541	C	0.84308	0.201532	0.955797
542	C	0.806153	0.177438	0.289567
543	C	0.795003	0.140846	0.95579
544	H	0.851832	0.227968	0.958652
545	H	0.768564	0.12317	0.958649
546	H	0.87338	0.144708	0.958706
547	C	0.807503	0.09161	0.963406
548	C	0.781331	0.189032	0.296669
549	C	0.904933	0.215206	0.963399
550	O	0.747856	0.164501	0.975466
551	O	0.832031	0.08267	0.975572
552	O	0.913862	0.248667	0.975579
553	C	0.7302	0.234978	0.03466
554	C	0.735999	0.269037	0.022336
555	C	0.761358	0.286292	0.321468
556	N	0.777843	0.270571	0.301636
557	C	0.770912	0.237567	0.312773
558	N	0.747351	0.220818	0.012716
559	H	0.7664	0.309983	0.30865
560	C	0.706254	0.213002	0.070862
561	C	0.719623	0.1965	0.105691
562	C	0.715654	0.228347	0.118285
563	H	0.677825	0.198215	0.064198
564	H	0.693371	0.222321	0.140194
565	H	0.74063	0.253062	0.122984
566	H	0.746937	0.202165	0.102709
567	H	0.699689	0.171243	0.119815
568	N	0.715701	0.282075	0.039641
569	H	0.695083	0.265379	0.056445
570	N	0.78892	0.223332	0.292909
571	H	0.808824	0.239247	0.274248
572	C	0.761537	0.494542	0.034759
573	C	0.727485	0.466279	0.022421
574	C	0.710222	0.474387	0.321566
575	N	0.72597	0.006584	0.301702
576	C	0.758964	0.032661	0.312858
577	N	0.775702	0.025855	0.01282
578	H	0.686595	0.45571	0.308641
579	C	0.783506	0.492563	0.070966
580	C	0.799977	0.522418	0.10582
581	C	0.768142	0.486582	0.118382
582	H	0.798313	0.478945	0.064294
583	H	0.774174	0.470326	0.140279
584	H	0.743414	0.486823	0.123074
585	H	0.794292	0.044055	0.102853
586	H	0.825235	0.527753	0.119953
587	N	0.714457	0.432928	0.039673
588	H	0.731156	0.429002	0.056462
589	N	0.773206	0.064898	0.292977
590	H	0.757296	0.068881	0.274296
591	C	0.501994	0.266317	0.034766
592	C	0.530257	0.26052	0.022447
593	C	0.522163	0.23518	0.321556
594	N	0.989958	0.218697	0.301718
595	C	0.963878	0.225612	0.312876
596	N	0.970684	0.249171	0.012819
597	H	0.540824	0.230164	0.308726
598	C	0.503967	0.290265	0.070967
599	C	0.474098	0.276894	0.1058
600	C	0.509921	0.280872	0.11839
601	H	0.517604	0.318692	0.064299
602	H	0.526179	0.303157	0.140294
603	H	0.509661	0.255895	0.12309
604	H	0.952454	0.249582	0.102824
605	H	0.468778	0.296831	0.119925
606	N	0.5636	0.280827	0.039727
607	H	0.567525	0.301446	0.05653
608	N	0.931649	0.207623	0.292977
609	H	0.927666	0.187729	0.274298
610	C	0.673233	0.3684	0.373639
611	C	0.637648	0.340341	0.373642
612	C	0.628126	0.304134	0.373682
613	C	0.656189	0.296612	0.373629
614	C	0.692396	0.323298	0.706984
615	C	0.699924	0.358885	0.373659
616	H	0.649843	0.270794	0.370877
617	H	0.725737	0.378351	0.370827
618	H	0.618174	0.346685	0.37091
619	C	0.681246	0.404191	0.369195
620	C	0.720171	0.315283	0.702486
621	C	0.592337	0.276356	0.369228
622	O	0.753761	0.342513	0.363737
623	O	0.654019	0.410548	0.36373
624	O	0.585973	0.242763	0.363826
625	C	0.819107	0.128029	0.289633
626	C	0.855698	0.153458	0.289125
627	C	0.868522	0.190383	0.289595
628	C	0.84308	0.201532	0.289131
629	C	0.806153	0.177438	0.622901
630	C	0.795003	0.140846	0.289125
631	H	0.851832	0.227968	0.291987
632	H	0.768564	0.12317	0.291983
633	H	0.87338	0.144708	0.29204
634	C	0.807503	0.09161	0.29674
635	C	0.781331	0.189032	0.630001
636	C	0.904933	0.215206	0.296734
637	O	0.747856	0.164501	0.308799
638	O	0.832031	0.08267	0.308906
639	O	0.913862	0.248667	0.308912
640	C	0.7302	0.234978	0.367991
641	C	0.735999	0.269037	0.355669
642	C	0.761358	0.286292	0.654802
643	N	0.777843	0.270571	0.634971
644	C	0.770912	0.237567	0.646107
645	N	0.747351	0.220818	0.346049
646	H	0.7664	0.309983	0.641985
647	C	0.706254	0.213002	0.404194
648	C	0.719623	0.1965	0.439024
649	C	0.715654	0.228347	0.451618
650	H	0.677825	0.198215	0.397532
651	H	0.693371	0.222321	0.473527
652	H	0.74063	0.253062	0.456319
653	H	0.746937	0.202165	0.436042
654	H	0.699689	0.171243	0.453148
655	N	0.715701	0.282075	0.372974
656	H	0.695083	0.265379	0.389777
657	N	0.78892	0.223332	0.626242
658	H	0.808824	0.239247	0.607581
659	C	0.761537	0.494542	0.368091
660	C	0.727485	0.466279	0.355756
661	C	0.710222	0.474387	0.654899
662	N	0.72597	0.006584	0.635034
663	C	0.758964	0.032661	0.646193
664	N	0.775702	0.025855	0.346152
665	H	0.686595	0.45571	0.641975
666	C	0.783506	0.492563	0.4043
667	C	0.799977	0.522418	0.439153
668	C	0.768142	0.486582	0.451715
669	H	0.798313	0.478945	0.397626
670	H	0.774174	0.470326	0.473611
671	H	0.743414	0.486823	0.456408
672	H	0.794292	0.044055	0.436185
673	H	0.825235	0.527753	0.453287
674	N	0.714457	0.432928	0.373007
675	H	0.731156	0.429002	0.389794
676	N	0.773206	0.064898	0.626312
677	H	0.757296	0.068881	0.60763
678	C	0.501994	0.266317	0.368101
679	C	0.530257	0.26052	0.355779
680	C	0.522163	0.23518	0.654889
681	N	0.989958	0.218697	0.635051
682	C	0.963878	0.225612	0.64621
683	N	0.970684	0.249171	0.346152
684	H	0.540824	0.230164	0.642058
685	C	0.503967	0.290265	0.4043
686	C	0.474098	0.276894	0.439133
687	C	0.509921	0.280872	0.451725
688	H	0.517604	0.318692	0.397632
689	H	0.526179	0.303157	0.473627
690	H	0.509661	0.255895	0.456422
691	H	0.952454	0.249582	0.436158
692	H	0.468778	0.296831	0.453257
693	N	0.5636	0.280827	0.373061
694	H	0.567525	0.301446	0.389864
695	N	0.931649	0.207623	0.626312
696	H	0.927666	0.187729	0.60763
697	C	0.673233	0.3684	0.706974
698	C	0.637648	0.340341	0.706974
699	C	0.628126	0.304134	0.707014
700	C	0.656189	0.296612	0.70696
701	C	0.692396	0.323298	0.040317
702	C	0.699924	0.358885	0.70699
703	H	0.649843	0.270794	0.704211
704	H	0.725737	0.378351	0.704162
705	H	0.618174	0.346685	0.704245
706	C	0.681246	0.404191	0.702526
707	C	0.720171	0.315283	0.035822
708	C	0.592337	0.276356	0.702563
709	O	0.753761	0.342513	0.697071
710	O	0.654019	0.410548	0.697061
711	O	0.585973	0.242763	0.697158
712	C	0.819107	0.128029	0.622964
713	C	0.855698	0.153458	0.622459
714	C	0.868522	0.190383	0.622928
715	C	0.84308	0.201532	0.622466
716	C	0.806153	0.177438	0.956233
717	C	0.795003	0.140846	0.622459
718	H	0.851832	0.227968	0.625321
719	H	0.768564	0.12317	0.625318
720	H	0.87338	0.144708	0.625374
721	C	0.807503	0.09161	0.630071
722	C	0.781331	0.189032	0.963336
723	C	0.904933	0.215206	0.630068
724	O	0.747856	0.164501	0.642131
725	O	0.832031	0.08267	0.642237
726	O	0.913862	0.248667	0.642244
727	C	0.7302	0.234978	0.701326
728	C	0.735999	0.269037	0.689004
729	C	0.761358	0.286292	0.988134
730	N	0.777843	0.270571	0.968302
731	C	0.770912	0.237567	0.979438
732	N	0.747351	0.220818	0.679381
733	H	0.7664	0.309983	0.975316
734	C	0.706254	0.213002	0.737529
735	C	0.719623	0.1965	0.772358
736	C	0.715654	0.228347	0.784953
737	H	0.677825	0.198215	0.730864
738	H	0.693371	0.222321	0.806859
739	H	0.74063	0.253062	0.78965
740	H	0.746937	0.202165	0.769376
741	H	0.699689	0.171243	0.786482
742	N	0.715701	0.282075	0.706306
743	H	0.695083	0.265379	0.723112
744	N	0.78892	0.223332	0.959577
745	H	0.808824	0.239247	0.940915
746	C	0.761537	0.494542	0.701426
747	C	0.727485	0.466279	0.689087
748	C	0.710222	0.474387	0.988233
749	N	0.72597	0.006584	0.968369
750	C	0.758964	0.032661	0.979524
751	N	0.775702	0.025855	0.679487
752	H	0.686595	0.45571	0.975309
753	C	0.783506	0.492563	0.737632
754	C	0.799977	0.522418	0.772488
755	C	0.768142	0.486582	0.785046
756	H	0.798313	0.478945	0.73096
757	H	0.774174	0.470326	0.806945
758	H	0.743414	0.486823	0.78974
759	H	0.794292	0.044055	0.769519
760	H	0.825235	0.527753	0.786618
761	N	0.714457	0.432928	0.706339
762	H	0.731156	0.429002	0.723129
763	N	0.773206	0.064898	0.959643
764	H	0.757296	0.068881	0.940962
765	C	0.501994	0.266317	0.701432
766	C	0.530257	0.26052	0.689113
767	C	0.522163	0.23518	0.988223
768	N	0.989958	0.218697	0.968385
769	C	0.963878	0.225612	0.979541
770	N	0.970684	0.249171	0.679484
771	H	0.540824	0.230164	0.975393
772	C	0.503967	0.290265	0.737632
773	C	0.474098	0.276894	0.772468
774	C	0.509921	0.280872	0.785056
775	H	0.517604	0.318692	0.730967
776	H	0.526179	0.303157	0.806962
777	H	0.509661	0.255895	0.789756
778	H	0.952454	0.249582	0.76949
779	H	0.468778	0.296831	0.786592
780	N	0.5636	0.280827	0.706392
781	H	0.567525	0.301446	0.723195
782	N	0.931649	0.207623	0.959643
783	H	0.927666	0.187729	0.940965
784	C	0.673231	0.868398	0.040307
785	C	0.637647	0.840339	0.040308
786	C	0.628125	0.804133	0.040349
787	C	0.656188	0.796613	0.040295
788	C	0.692396	0.823297	0.373649
789	C	0.699923	0.858886	0.040324
790	H	0.649842	0.770795	0.037544
791	H	0.725738	0.87835	0.037494
792	H	0.618174	0.846686	0.037578
793	C	0.681247	0.904192	0.03586
794	C	0.720169	0.815281	0.369155
795	C	0.592335	0.776354	0.035895
796	O	0.753759	0.842511	0.030404
797	O	0.654019	0.910549	0.030395
798	O	0.585973	0.742762	0.030493
799	C	0.819105	0.628029	0.956299
800	C	0.855697	0.653457	0.95579
801	C	0.868521	0.690382	0.956262
802	C	0.843079	0.701531	0.955797
803	C	0.806152	0.677437	0.289567
804	C	0.795002	0.640846	0.95579
805	H	0.851834	0.727969	0.958652
806	H	0.768565	0.623171	0.958649
807	H	0.873379	0.644708	0.958706
808	C	0.807505	0.59161	0.963406
809	C	0.781329	0.689031	0.296669
810	C	0.904932	0.715207	0.963399
811	O	0.747854	0.6645	0.975466
812	O	0.83203	0.58267	0.975572
813	O	0.913863	0.748666	0.975579
814	C	0.730199	0.734977	0.03466
815	C	0.736001	0.769038	0.022336
816	C	0.761357	0.786293	0.321468
817	N	0.777844	0.770569	0.301636
818	C	0.770911	0.737568	0.312773
819	N	0.747349	0.720817	0.012716
820	H	0.7664	0.809981	0.30865
821	C	0.706253	0.713003	0.070862
822	C	0.719625	0.696501	0.105691
823	C	0.715653	0.728347	0.118285
824	H	0.677826	0.698214	0.064198
825	H	0.693371	0.722321	0.140194
826	H	0.740631	0.753061	0.122984
827	H	0.746937	0.702164	0.102709
828	H	0.699687	0.671241	0.119815
829	N	0.715701	0.782076	0.039641
830	H	0.695083	0.76538	0.056445
831	N	0.788918	0.72333	0.292909
832	H	0.808825	0.739247	0.274248
833	C	0.761537	0.994543	0.034759
834	C	0.727483	0.966277	0.022421
835	C	0.710221	0.974385	0.321566
836	N	0.725969	0.506583	0.301702
837	C	0.758963	0.532661	0.312858
838	N	0.775702	0.525853	0.01282
839	H	0.686593	0.955708	0.308641
840	C	0.783505	0.992564	0.070966
841	C	0.799977	0.022419	0.10582
842	C	0.768141	0.986583	0.118382
843	H	0.798315	0.978946	0.064294
844	H	0.774176	0.970327	0.140279
845	H	0.743412	0.986821	0.123074
846	H	0.794294	0.544056	0.102853
847	H	0.825236	0.027752	0.119953
848	N	0.714455	0.932926	0.039673
849	H	0.731157	0.929003	0.056462
850	N	0.773204	0.564897	0.292977
851	H	0.757294	0.568881	0.274296
852	C	0.501995	0.766318	0.034766
853	C	0.530256	0.76052	0.022447
854	C	0.522162	0.735179	0.321556
855	N	0.989957	0.718698	0.301718
856	C	0.963877	0.725611	0.312876
857	N	0.970685	0.74917	0.012819
858	H	0.540824	0.730164	0.308726
859	C	0.503967	0.790266	0.070967
860	C	0.474099	0.776895	0.1058
861	C	0.509921	0.780873	0.11839
862	H	0.517605	0.818693	0.064299
863	H	0.526177	0.803155	0.140294
864	H	0.50966	0.755895	0.12309
865	H	0.952453	0.749583	0.102824
866	H	0.468778	0.796832	0.119925
867	N	0.563599	0.780826	0.039727
868	H	0.567525	0.801447	0.05653
869	N	0.931648	0.707623	0.292977
870	H	0.927666	0.687728	0.274298
871	C	0.673231	0.868398	0.373639
872	C	0.637647	0.840339	0.373642
873	C	0.628125	0.804133	0.373682
874	C	0.656188	0.796613	0.373629
875	C	0.692396	0.823297	0.706984
876	C	0.699923	0.858886	0.373659
877	H	0.649842	0.770795	0.370877
878	H	0.725738	0.87835	0.370827
879	H	0.618174	0.846686	0.37091
880	C	0.681247	0.904192	0.369195
881	C	0.720169	0.815281	0.702486
882	C	0.592335	0.776354	0.369228
883	O	0.753759	0.842511	0.363737
884	O	0.654019	0.910549	0.36373
885	O	0.585973	0.742762	0.363826
886	C	0.819105	0.628029	0.289633
887	C	0.855697	0.653457	0.289125
888	C	0.868521	0.690382	0.289595
889	C	0.843079	0.701531	0.289131
890	C	0.806152	0.677437	0.622901
891	C	0.795002	0.640846	0.289125
892	H	0.851834	0.727969	0.291987
893	H	0.768565	0.623171	0.291983
894	H	0.873379	0.644708	0.29204
895	C	0.807505	0.59161	0.29674
896	C	0.781329	0.689031	0.630001
897	C	0.904932	0.715207	0.296734
898	O	0.747854	0.6645	0.308799
899	O	0.83203	0.58267	0.308906
900	O	0.913863	0.748666	0.308912
901	C	0.730199	0.734977	0.367991
902	C	0.736001	0.769038	0.355669
903	C	0.761357	0.786293	0.654802
904	N	0.777844	0.770569	0.634971
905	C	0.770911	0.737568	0.646107
906	N	0.747349	0.720817	0.346049
907	H	0.7664	0.809981	0.641985
908	C	0.706253	0.713003	0.404194
909	C	0.719625	0.696501	0.439024
910	C	0.715653	0.728347	0.451618
911	H	0.677826	0.698214	0.397532
912	H	0.693371	0.722321	0.473527
913	H	0.740631	0.753061	0.456319
914	H	0.746937	0.702164	0.436042
915	H	0.699687	0.671241	0.453148
916	N	0.715701	0.782076	0.372974
917	H	0.695083	0.76538	0.389777
918	N	0.788918	0.72333	0.626242
919	H	0.808825	0.739247	0.607581
920	C	0.761537	0.994543	0.368091
921	C	0.727483	0.966277	0.355756
922	C	0.710221	0.974385	0.654899
923	N	0.725969	0.506583	0.635034
924	C	0.758963	0.532661	0.646193
925	N	0.775702	0.525853	0.346152
926	H	0.686593	0.955708	0.641975
927	C	0.783505	0.992564	0.4043
928	C	0.799977	0.022419	0.439153
929	C	0.768141	0.986583	0.451715
930	H	0.798315	0.978946	0.397626
931	H	0.774176	0.970327	0.473611
932	H	0.743412	0.986821	0.456408
933	H	0.794294	0.544056	0.436185
934	H	0.825236	0.027752	0.453287
935	N	0.714455	0.932926	0.373007
936	H	0.731157	0.929003	0.389794
937	N	0.773204	0.564897	0.626312
938	H	0.757294	0.568881	0.60763
939	C	0.501995	0.766318	0.368101
940	C	0.530256	0.76052	0.355779
941	C	0.522162	0.735179	0.654889
942	N	0.989957	0.718698	0.635051
943	C	0.963877	0.725611	0.64621
944	N	0.970685	0.74917	0.346152
945	H	0.540824	0.730164	0.642058
946	C	0.503967	0.790266	0.4043
947	C	0.474099	0.776895	0.439133
948	C	0.509921	0.780873	0.451725
949	H	0.517605	0.818693	0.397632
950	H	0.526177	0.803155	0.473627
951	H	0.50966	0.755895	0.456422
952	H	0.952453	0.749583	0.436158
953	H	0.468778	0.796832	0.453257
954	N	0.563599	0.780826	0.373061
955	H	0.567525	0.801447	0.389864
956	N	0.931648	0.707623	0.626312
957	H	0.927666	0.687728	0.60763
958	C	0.673231	0.868398	0.706974
959	C	0.637647	0.840339	0.706974
960	C	0.628125	0.804133	0.707014
961	C	0.656188	0.796613	0.70696
962	C	0.692396	0.823297	0.040317
963	C	0.699923	0.858886	0.70699
964	H	0.649842	0.770795	0.704211
965	H	0.725738	0.87835	0.704162
966	H	0.618174	0.846686	0.704245
967	C	0.681247	0.904192	0.702526
968	C	0.720169	0.815281	0.035822
969	C	0.592335	0.776354	0.702563
970	O	0.753759	0.842511	0.697071
971	O	0.654019	0.910549	0.697061
972	O	0.585973	0.742762	0.697158
973	C	0.819105	0.628029	0.622964
974	C	0.855697	0.653457	0.622459
975	C	0.868521	0.690382	0.622928
976	C	0.843079	0.701531	0.622466
977	C	0.806152	0.677437	0.956233
978	C	0.795002	0.640846	0.622459
979	H	0.851834	0.727969	0.625321
980	H	0.768565	0.623171	0.625318
981	H	0.873379	0.644708	0.625374
982	C	0.807505	0.59161	0.630071
983	C	0.781329	0.689031	0.963336
984	C	0.904932	0.715207	0.630068
985	O	0.747854	0.6645	0.642131
986	O	0.83203	0.58267	0.642237
987	O	0.913863	0.748666	0.642244
988	C	0.730199	0.734977	0.701326
989	C	0.736001	0.769038	0.689004
990	C	0.761357	0.786293	0.988134
991	N	0.777844	0.770569	0.968302
992	C	0.770911	0.737568	0.979438
993	N	0.747349	0.720817	0.679381
994	H	0.7664	0.809981	0.975316
995	C	0.706253	0.713003	0.737529
996	C	0.719625	0.696501	0.772358
997	C	0.715653	0.728347	0.784953
998	H	0.677826	0.698214	0.730864
999	H	0.693371	0.722321	0.806859
1000	H	0.740631	0.753061	0.78965
1001	H	0.746937	0.702164	0.769376
1002	H	0.699687	0.671241	0.786482
1003	N	0.715701	0.782076	0.706306
1004	H	0.695083	0.76538	0.723112
1005	N	0.788918	0.72333	0.959577
1006	H	0.808825	0.739247	0.940915
1007	C	0.761537	0.994543	0.701426
1008	C	0.727483	0.966277	0.689087
1009	C	0.710221	0.974385	0.988233
1010	N	0.725969	0.506583	0.968369
1011	C	0.758963	0.532661	0.979524
1012	N	0.775702	0.525853	0.679487
1013	H	0.686593	0.955708	0.975309
1014	C	0.783505	0.992564	0.737632
1015	C	0.799977	0.022419	0.772488
1016	C	0.768141	0.986583	0.785046
1017	H	0.798315	0.978946	0.73096
1018	H	0.774176	0.970327	0.806945
1019	H	0.743412	0.986821	0.78974
1020	H	0.794294	0.544056	0.769519
1021	H	0.825236	0.027752	0.786618
1022	N	0.714455	0.932926	0.706339
1023	H	0.731157	0.929003	0.723129
1024	N	0.773204	0.564897	0.959643
1025	H	0.757294	0.568881	0.940962
1026	C	0.501995	0.766318	0.701432
1027	C	0.530256	0.76052	0.689113
1028	C	0.522162	0.735179	0.988223
1029	N	0.989957	0.718698	0.968385
1030	C	0.963877	0.725611	0.979541
1031	N	0.970685	0.74917	0.679487
1032	H	0.540824	0.730164	0.975393
1033	C	0.503967	0.790266	0.737632
1034	C	0.474099	0.776895	0.772468
1035	C	0.509921	0.780873	0.785056
1036	H	0.517605	0.818693	0.730967
1037	H	0.526177	0.803155	0.806962
1038	H	0.50966	0.755895	0.789756
1039	H	0.952453	0.749583	0.76949
1040	H	0.468778	0.796832	0.786592
1041	N	0.563599	0.780826	0.706392
1042	H	0.567525	0.801447	0.723195
1043	N	0.931648	0.707623	0.959643
1044	H	0.927666	0.687728	0.940965
