data_C360H252N180O72_2018-02-15_10:32:46
#******************************************
#
# CIF file created by Zeo++
# Zeo++ is an open source package to
# analyze microporous materials
#
#*******************************************

_cell_length_a		43.5909   
_cell_length_b		43.5909   
_cell_length_c		30.0958   
_cell_angle_alpha		90   
_cell_angle_beta		90   
_cell_angle_gamma		120   

_symmetry_space_group_name_H-M		'P1'
_symmetry_Int_Tables_number		1
_symmetry_cell_setting		Monoclinic

loop_
_symmetry_equiv_pos_as_xyz
'+x,+y,+z'

loop_
_atom_site_label
_atom_site_type_symbol
_atom_site_fract_x
_atom_site_fract_y
_atom_site_fract_z
1	C	0.176056	0.369009	0.956195
2	C	0.139562	0.343147	0.955667
3	C	0.126988	0.306248	0.956069
4	C	0.152858	0.295623	0.955607
5	C	0.189759	0.319948	0.289439
6	C	0.200392	0.356448	0.95564
7	H	0.144344	0.269268	0.958172
8	H	0.226739	0.374278	0.958365
9	H	0.121722	0.351658	0.958275
10	C	0.18701	0.405435	0.962754
11	C	0.215237	0.309	0.295973
12	C	0.09056	0.280762	0.962552
13	O	0.249192	0.334472	0.971138
14	O	0.161533	0.413909	0.971267
15	O	0.082074	0.246799	0.971008
16	C	0.319231	0.127796	0.045394
17	C	0.355695	0.153733	0.045626
18	C	0.368245	0.190647	0.045398
19	C	0.342301	0.201167	0.045589
20	C	0.305385	0.176805	0.378747
21	C	0.294864	0.14034	0.045625
22	H	0.350813	0.227522	0.043066
23	H	0.268505	0.1225	0.043123
24	H	0.373538	0.145222	0.043088
25	C	0.308317	0.091213	0.040418
26	C	0.279717	0.187714	0.373716
27	C	0.40482	0.216314	0.040344
28	O	0.245674	0.162279	0.032326
29	O	0.333749	0.082601	0.032358
30	O	0.413421	0.25035	0.032242
31	C	0.267037	0.235624	0.025792
32	N	0.238703	0.215084	0.332591
33	C	0.218725	0.226267	0.311304
34	C	0.227763	0.262032	0.315188
35	N	0.255751	0.282439	0.008714
36	C	0.275837	0.271621	0.030929
37	H	0.197836	0.208779	0.292269
38	N	0.302189	0.29629	0.056611
39	H	0.316664	0.290722	0.075598
40	H	0.305796	0.320202	0.058757
41	N	0.207971	0.274638	0.295806
42	H	0.186407	0.257163	0.281059
43	N	0.286851	0.222012	0.042735
44	H	0.308817	0.238691	0.056906
45	C	0.260407	0.03061	0.025903
46	N	0.280929	0.022819	0.332664
47	C	0.269739	0.491655	0.311377
48	C	0.233971	0.464935	0.31526
49	N	0.213581	0.472514	0.008821
50	C	0.224409	0.003416	0.031043
51	H	0.287216	0.488267	0.292301
52	N	0.199756	0.005103	0.05675
53	H	0.205307	0.025168	0.075688
54	H	0.175823	0.984818	0.058849
55	N	0.221368	0.432534	0.29589
56	H	0.238839	0.428444	0.281132
57	N	0.274022	0.064049	0.042799
58	H	0.257346	0.069342	0.056971
59	C	0.465403	0.228981	0.025736
60	N	0.473187	0.257304	0.332518
61	C	0.004346	0.277284	0.311228
62	C	0.031067	0.268235	0.315088
63	N	0.0235	0.240265	0.008642
64	C	0.492603	0.220185	0.030872
65	H	0.007728	0.298144	0.292149
66	N	0.490939	0.19386	0.056591
67	H	0.470868	0.179334	0.075533
68	H	0.51122	0.190221	0.058684
69	N	0.063465	0.288028	0.295707
70	H	0.067561	0.309598	0.280975
71	N	0.431986	0.209184	0.042706
72	H	0.426704	0.187228	0.056904
73	C	0.176056	0.369009	0.289527
74	C	0.139562	0.343147	0.288999
75	C	0.126988	0.306248	0.289401
76	C	0.152858	0.295623	0.288941
77	C	0.189759	0.319948	0.622774
78	C	0.200392	0.356448	0.288974
79	H	0.144344	0.269268	0.291504
80	H	0.226739	0.374278	0.291697
81	H	0.121722	0.351658	0.291608
82	C	0.18701	0.405435	0.296087
83	C	0.215237	0.309	0.629306
84	C	0.09056	0.280762	0.295883
85	O	0.249192	0.334472	0.30447
86	O	0.161533	0.413909	0.3046
87	O	0.082074	0.246799	0.304341
88	C	0.319231	0.127796	0.378727
89	C	0.355695	0.153733	0.378959
90	C	0.368245	0.190647	0.378733
91	C	0.342301	0.201167	0.378923
92	C	0.305385	0.176805	0.712082
93	C	0.294864	0.14034	0.378959
94	H	0.350813	0.227522	0.376401
95	H	0.268505	0.1225	0.376457
96	H	0.373538	0.145222	0.376421
97	C	0.308317	0.091213	0.373753
98	C	0.279717	0.187714	0.707051
99	C	0.40482	0.216314	0.37368
100	O	0.245674	0.162279	0.365659
101	O	0.333749	0.082601	0.365692
102	O	0.413421	0.25035	0.365575
103	C	0.267037	0.235624	0.359126
104	N	0.238703	0.215084	0.665923
105	C	0.218725	0.226267	0.644637
106	C	0.227763	0.262032	0.648522
107	N	0.255751	0.282439	0.342047
108	C	0.275837	0.271621	0.364263
109	H	0.197836	0.208779	0.625605
110	N	0.302189	0.29629	0.389944
111	H	0.316664	0.290722	0.408934
112	H	0.305796	0.320202	0.392091
113	N	0.207971	0.274638	0.62914
114	H	0.186407	0.257163	0.614394
115	N	0.286851	0.222012	0.376069
116	H	0.308817	0.238691	0.39024
117	C	0.260407	0.03061	0.359236
118	N	0.280929	0.022819	0.665996
119	C	0.269739	0.491655	0.64471
120	C	0.233971	0.464935	0.648595
121	N	0.213581	0.472514	0.342154
122	C	0.224409	0.003416	0.364376
123	H	0.287216	0.488267	0.625635
124	N	0.199756	0.005103	0.390084
125	H	0.205307	0.025168	0.409023
126	H	0.175823	0.984818	0.392184
127	N	0.221368	0.432534	0.629223
128	H	0.238839	0.428444	0.614464
129	N	0.274022	0.064049	0.376132
130	H	0.257346	0.069342	0.390303
131	C	0.465403	0.228981	0.35907
132	N	0.473187	0.257304	0.665853
133	C	0.004346	0.277284	0.644561
134	C	0.031067	0.268235	0.648422
135	N	0.0235	0.240265	0.341974
136	C	0.492603	0.220185	0.364207
137	H	0.007728	0.298144	0.625482
138	N	0.490939	0.19386	0.389924
139	H	0.470868	0.179334	0.408867
140	H	0.51122	0.190221	0.392018
141	N	0.063465	0.288028	0.62904
142	H	0.067561	0.309598	0.614308
143	N	0.431986	0.209184	0.376039
144	H	0.426704	0.187228	0.390237
145	C	0.176056	0.369009	0.62286
146	C	0.139562	0.343147	0.622332
147	C	0.126988	0.306248	0.622734
148	C	0.152858	0.295623	0.622275
149	C	0.189759	0.319948	0.956106
150	C	0.200392	0.356448	0.622309
151	H	0.144344	0.269268	0.624837
152	H	0.226739	0.374278	0.62503
153	H	0.121722	0.351658	0.624944
154	C	0.18701	0.405435	0.629423
155	C	0.215237	0.309	0.962641
156	C	0.09056	0.280762	0.629217
157	O	0.249192	0.334472	0.637802
158	O	0.161533	0.413909	0.637935
159	O	0.082074	0.246799	0.637673
160	C	0.319231	0.127796	0.712062
161	C	0.355695	0.153733	0.712295
162	C	0.368245	0.190647	0.712065
163	C	0.342301	0.201167	0.712258
164	C	0.305385	0.176805	0.045414
165	C	0.294864	0.14034	0.712291
166	H	0.350813	0.227522	0.709733
167	H	0.268505	0.1225	0.709789
168	H	0.373538	0.145222	0.709756
169	C	0.308317	0.091213	0.707084
170	C	0.279717	0.187714	0.040383
171	C	0.40482	0.216314	0.707011
172	O	0.245674	0.162279	0.698994
173	O	0.333749	0.082601	0.699027
174	O	0.413421	0.25035	0.698911
175	C	0.267037	0.235624	0.692461
176	N	0.238703	0.215084	0.999257
177	C	0.218725	0.226267	0.977972
178	C	0.227763	0.262032	0.981857
179	N	0.255751	0.282439	0.675382
180	C	0.275837	0.271621	0.697598
181	H	0.197836	0.208779	0.958937
182	N	0.302189	0.29629	0.723279
183	H	0.316664	0.290722	0.742265
184	H	0.305796	0.320202	0.725426
185	N	0.207971	0.274638	0.962472
186	H	0.186407	0.257163	0.947726
187	N	0.286851	0.222012	0.709404
188	H	0.308817	0.238691	0.723575
189	C	0.260407	0.03061	0.692571
190	N	0.280929	0.022819	0.999329
191	C	0.269739	0.491655	0.978046
192	C	0.233971	0.464935	0.981926
193	N	0.213581	0.472514	0.675489
194	C	0.224409	0.003416	0.697711
195	H	0.287216	0.488267	0.95897
196	N	0.199756	0.005103	0.723419
197	H	0.205307	0.025168	0.742355
198	H	0.175823	0.984818	0.725516
199	N	0.221368	0.432534	0.962558
200	H	0.238839	0.428444	0.947799
201	N	0.274022	0.064049	0.709467
202	H	0.257346	0.069342	0.723638
203	C	0.465403	0.228981	0.692405
204	N	0.473187	0.257304	0.999185
205	C	0.004346	0.277284	0.977896
206	C	0.031067	0.268235	0.981757
207	N	0.0235	0.240265	0.675309
208	C	0.492603	0.220185	0.697538
209	H	0.007728	0.298144	0.958817
210	N	0.490939	0.19386	0.723259
211	H	0.470868	0.179334	0.742199
212	H	0.51122	0.190221	0.725353
213	N	0.063465	0.288028	0.962376
214	H	0.067561	0.309598	0.947643
215	N	0.431986	0.209184	0.709374
216	H	0.426704	0.187228	0.723572
217	C	0.176055	0.869009	0.956195
218	C	0.139562	0.843147	0.955667
219	C	0.126987	0.806247	0.956069
220	C	0.152858	0.795622	0.955607
221	C	0.189758	0.819948	0.289439
222	C	0.200392	0.856447	0.95564
223	H	0.144344	0.769268	0.958172
224	H	0.226738	0.874277	0.958365
225	H	0.121721	0.851658	0.958275
226	C	0.187009	0.905434	0.962754
227	C	0.215236	0.808999	0.295973
228	C	0.090558	0.780762	0.962552
229	O	0.249191	0.834472	0.971138
230	O	0.161534	0.913908	0.971267
231	O	0.082074	0.746799	0.971008
232	C	0.319231	0.627795	0.045394
233	C	0.355695	0.653731	0.045626
234	C	0.368244	0.690647	0.045398
235	C	0.342299	0.701166	0.045589
236	C	0.305384	0.676804	0.378747
237	C	0.294864	0.640341	0.045625
238	H	0.350811	0.72752	0.043066
239	H	0.268505	0.6225	0.043123
240	H	0.373536	0.64522	0.043088
241	C	0.308317	0.591213	0.040418
242	C	0.279717	0.687715	0.373716
243	C	0.404818	0.716313	0.040344
244	O	0.245673	0.662279	0.032326
245	O	0.33375	0.582602	0.032358
246	O	0.41342	0.750349	0.032242
247	C	0.267037	0.735624	0.025792
248	N	0.238703	0.715084	0.332591
249	C	0.218725	0.726267	0.311304
250	C	0.227762	0.762031	0.315188
251	N	0.255751	0.782438	0.008714
252	C	0.275837	0.77162	0.030929
253	H	0.197836	0.708779	0.292269
254	N	0.302188	0.79629	0.056611
255	H	0.316663	0.790722	0.075598
256	H	0.305795	0.820202	0.058757
257	N	0.20797	0.774637	0.295806
258	H	0.186406	0.757162	0.281059
259	N	0.286851	0.722013	0.042735
260	H	0.308817	0.738691	0.056906
261	C	0.260405	0.530608	0.025903
262	N	0.280929	0.522818	0.332664
263	C	0.269739	0.991655	0.311377
264	C	0.23397	0.964935	0.31526
265	N	0.21358	0.972514	0.008821
266	C	0.224409	0.503417	0.031043
267	H	0.287215	0.988267	0.292301
268	N	0.199755	0.505101	0.05675
269	H	0.205306	0.525167	0.075688
270	H	0.175823	0.484818	0.058849
271	N	0.221368	0.932533	0.29589
272	H	0.238839	0.928443	0.281132
273	N	0.274021	0.564049	0.042799
274	H	0.257345	0.569341	0.056971
275	C	0.465403	0.72898	0.025736
276	N	0.473185	0.757303	0.332518
277	C	0.004345	0.777284	0.311228
278	C	0.031066	0.768235	0.315088
279	N	0.023499	0.740264	0.008642
280	C	0.492603	0.720185	0.030872
281	H	0.007728	0.798144	0.292149
282	N	0.490938	0.69386	0.056591
283	H	0.470868	0.679333	0.075533
284	H	0.51122	0.690221	0.058684
285	N	0.063465	0.788028	0.295707
286	H	0.06756	0.809598	0.280975
287	N	0.431986	0.709184	0.042706
288	H	0.426702	0.687227	0.056904
289	C	0.176055	0.869009	0.289527
290	C	0.139562	0.843147	0.288999
291	C	0.126987	0.806247	0.289401
292	C	0.152858	0.795622	0.288941
293	C	0.189758	0.819948	0.622774
294	C	0.200392	0.856447	0.288974
295	H	0.144344	0.769268	0.291504
296	H	0.226738	0.874277	0.291697
297	H	0.121721	0.851658	0.291608
298	C	0.187009	0.905434	0.296087
299	C	0.215236	0.808999	0.629306
300	C	0.090558	0.780762	0.295883
301	O	0.249191	0.834472	0.30447
302	O	0.161534	0.913908	0.3046
303	O	0.082074	0.746799	0.304341
304	C	0.319231	0.627795	0.378727
305	C	0.355695	0.653731	0.378959
306	C	0.368244	0.690647	0.378733
307	C	0.342299	0.701166	0.378923
308	C	0.305384	0.676804	0.712082
309	C	0.294864	0.640341	0.378959
310	H	0.350811	0.72752	0.376401
311	H	0.268505	0.6225	0.376457
312	H	0.373536	0.64522	0.376421
313	C	0.308317	0.591213	0.373753
314	C	0.279717	0.687715	0.707051
315	C	0.404818	0.716313	0.37368
316	O	0.245673	0.662279	0.365659
317	O	0.33375	0.582602	0.365692
318	O	0.41342	0.750349	0.365575
319	C	0.267037	0.735624	0.359126
320	N	0.238703	0.715084	0.665923
321	C	0.218725	0.726267	0.644637
322	C	0.227762	0.762031	0.648522
323	N	0.255751	0.782438	0.342047
324	C	0.275837	0.77162	0.364263
325	H	0.197836	0.708779	0.625605
326	N	0.302188	0.79629	0.389944
327	H	0.316663	0.790722	0.408934
328	H	0.305795	0.820202	0.392091
329	N	0.20797	0.774637	0.62914
330	H	0.186406	0.757162	0.614394
331	N	0.286851	0.722013	0.376069
332	H	0.308817	0.738691	0.39024
333	C	0.260405	0.530608	0.359236
334	N	0.280929	0.522818	0.665996
335	C	0.269739	0.991655	0.64471
336	C	0.23397	0.964935	0.648595
337	N	0.21358	0.972514	0.342154
338	C	0.224409	0.503417	0.364376
339	H	0.287215	0.988267	0.625635
340	N	0.199755	0.505101	0.390084
341	H	0.205306	0.525167	0.409023
342	H	0.175823	0.484818	0.392184
343	N	0.221368	0.932533	0.629223
344	H	0.238839	0.928443	0.614464
345	N	0.274021	0.564049	0.376132
346	H	0.257345	0.569341	0.390303
347	C	0.465403	0.72898	0.35907
348	N	0.473185	0.757303	0.665853
349	C	0.004345	0.777284	0.644561
350	C	0.031066	0.768235	0.648422
351	N	0.023499	0.740264	0.341974
352	C	0.492603	0.720185	0.364207
353	H	0.007728	0.798144	0.625482
354	N	0.490938	0.69386	0.389924
355	H	0.470868	0.679333	0.408867
356	H	0.51122	0.690221	0.392018
357	N	0.063465	0.788028	0.62904
358	H	0.06756	0.809598	0.614308
359	N	0.431986	0.709184	0.376039
360	H	0.426702	0.687227	0.390237
361	C	0.176055	0.869009	0.62286
362	C	0.139562	0.843147	0.622332
363	C	0.126987	0.806247	0.622734
364	C	0.152858	0.795622	0.622275
365	C	0.189758	0.819948	0.956106
366	C	0.200392	0.856447	0.622309
367	H	0.144344	0.769268	0.624837
368	H	0.226738	0.874277	0.62503
369	H	0.121721	0.851658	0.624944
370	C	0.187009	0.905434	0.629423
371	C	0.215236	0.808999	0.962641
372	C	0.090558	0.780762	0.629217
373	O	0.249191	0.834472	0.637802
374	O	0.161534	0.913908	0.637935
375	O	0.082074	0.746799	0.637673
376	C	0.319231	0.627795	0.712062
377	C	0.355695	0.653731	0.712295
378	C	0.368244	0.690647	0.712065
379	C	0.342299	0.701166	0.712258
380	C	0.305384	0.676804	0.045414
381	C	0.294864	0.640341	0.712291
382	H	0.350811	0.72752	0.709733
383	H	0.268505	0.6225	0.709789
384	H	0.373536	0.64522	0.709756
385	C	0.308317	0.591213	0.707084
386	C	0.279717	0.687715	0.040383
387	C	0.404818	0.716313	0.707011
388	O	0.245673	0.662279	0.698994
389	O	0.33375	0.582602	0.699027
390	O	0.41342	0.750349	0.698911
391	C	0.267037	0.735624	0.692461
392	N	0.238703	0.715084	0.999257
393	C	0.218725	0.726267	0.977972
394	C	0.227762	0.762031	0.981857
395	N	0.255751	0.782438	0.675382
396	C	0.275837	0.77162	0.697598
397	H	0.197836	0.708779	0.958937
398	N	0.302188	0.79629	0.723279
399	H	0.316663	0.790722	0.742265
400	H	0.305795	0.820202	0.725426
401	N	0.20797	0.774637	0.962472
402	H	0.186406	0.757162	0.947726
403	N	0.286851	0.722013	0.709404
404	H	0.308817	0.738691	0.723575
405	C	0.260405	0.530608	0.692571
406	N	0.280929	0.522818	0.999329
407	C	0.269739	0.991655	0.978046
408	C	0.23397	0.964935	0.981926
409	N	0.21358	0.972514	0.675489
410	C	0.224409	0.503417	0.697711
411	H	0.287215	0.988267	0.95897
412	N	0.199755	0.505101	0.723419
413	H	0.205306	0.525167	0.742355
414	H	0.175823	0.484818	0.725516
415	N	0.221368	0.932533	0.962558
416	H	0.238839	0.928443	0.947799
417	N	0.274021	0.564049	0.709467
418	H	0.257345	0.569341	0.723638
419	C	0.465403	0.72898	0.692405
420	N	0.473185	0.757303	0.999185
421	C	0.004345	0.777284	0.977896
422	C	0.031066	0.768235	0.981757
423	N	0.023499	0.740264	0.675309
424	C	0.492603	0.720185	0.697538
425	H	0.007728	0.798144	0.958817
426	N	0.490938	0.69386	0.723259
427	H	0.470868	0.679333	0.742199
428	H	0.51122	0.690221	0.725353
429	N	0.063465	0.788028	0.962376
430	H	0.06756	0.809598	0.947643
431	N	0.431986	0.709184	0.709374
432	H	0.426702	0.687227	0.723572
433	C	0.676056	0.369009	0.956195
434	C	0.639561	0.343147	0.955667
435	C	0.626988	0.306248	0.956069
436	C	0.652857	0.295623	0.955607
437	C	0.689758	0.319948	0.289439
438	C	0.700392	0.356448	0.95564
439	H	0.644343	0.269268	0.958172
440	H	0.726737	0.374278	0.958365
441	H	0.621722	0.351658	0.958275
442	C	0.687011	0.405435	0.962754
443	C	0.715236	0.309	0.295973
444	C	0.59056	0.280762	0.962552
445	O	0.749192	0.334472	0.971138
446	O	0.661533	0.413909	0.971267
447	O	0.582073	0.246799	0.971008
448	C	0.819232	0.127796	0.045394
449	C	0.855696	0.153733	0.045626
450	C	0.868244	0.190647	0.045398
451	C	0.8423	0.201167	0.045589
452	C	0.805384	0.176805	0.378747
453	C	0.794863	0.14034	0.045625
454	H	0.850811	0.227522	0.043066
455	H	0.768505	0.1225	0.043123
456	H	0.873537	0.145222	0.043088
457	C	0.808316	0.091213	0.040418
458	C	0.779716	0.187714	0.373716
459	C	0.904819	0.216314	0.040344
460	O	0.745673	0.162279	0.032326
461	O	0.83375	0.082601	0.032358
462	O	0.913419	0.25035	0.032242
463	C	0.767037	0.235624	0.025792
464	N	0.738703	0.215084	0.332591
465	C	0.718725	0.226267	0.311304
466	C	0.727764	0.262032	0.315188
467	N	0.755751	0.282439	0.008714
468	C	0.775836	0.271621	0.030929
469	H	0.697836	0.208779	0.292269
470	N	0.802187	0.29629	0.056611
471	H	0.816664	0.290722	0.075598
472	H	0.805795	0.320202	0.058757
473	N	0.70797	0.274638	0.295806
474	H	0.686406	0.257163	0.281059
475	N	0.786851	0.222012	0.042735
476	H	0.808817	0.238691	0.056906
477	C	0.760405	0.03061	0.025903
478	N	0.78093	0.022819	0.332664
479	C	0.769739	0.491655	0.311377
480	C	0.733971	0.464935	0.31526
481	N	0.713581	0.472514	0.008821
482	C	0.724409	0.003416	0.031043
483	H	0.787214	0.488267	0.292301
484	N	0.699754	0.005103	0.05675
485	H	0.705306	0.025168	0.075688
486	H	0.675823	0.984818	0.058849
487	N	0.721367	0.432534	0.29589
488	H	0.73884	0.428444	0.281132
489	N	0.774021	0.064049	0.042799
490	H	0.757344	0.069342	0.056971
491	C	0.965404	0.228981	0.025736
492	N	0.973186	0.257304	0.332518
493	C	0.504346	0.277284	0.311228
494	C	0.531067	0.268235	0.315088
495	N	0.523498	0.240265	0.008642
496	C	0.992602	0.220185	0.030872
497	H	0.507727	0.298144	0.292149
498	N	0.990938	0.19386	0.056591
499	H	0.970869	0.179334	0.075533
500	H	0.011221	0.190221	0.058684
501	N	0.563466	0.288028	0.295707
502	H	0.567562	0.309598	0.280975
503	N	0.931985	0.209184	0.042706
504	H	0.926703	0.187228	0.056904
505	C	0.676056	0.369009	0.289527
506	C	0.639561	0.343147	0.288999
507	C	0.626988	0.306248	0.289401
508	C	0.652857	0.295623	0.288941
509	C	0.689758	0.319948	0.622774
510	C	0.700392	0.356448	0.288974
511	H	0.644343	0.269268	0.291504
512	H	0.726737	0.374278	0.291697
513	H	0.621722	0.351658	0.291608
514	C	0.687011	0.405435	0.296087
515	C	0.715236	0.309	0.629306
516	C	0.59056	0.280762	0.295883
517	O	0.749192	0.334472	0.30447
518	O	0.661533	0.413909	0.3046
519	O	0.582073	0.246799	0.304341
520	C	0.819232	0.127796	0.378727
521	C	0.855696	0.153733	0.378959
522	C	0.868244	0.190647	0.378733
523	C	0.8423	0.201167	0.378923
524	C	0.805384	0.176805	0.712082
525	C	0.794863	0.14034	0.378959
526	H	0.850811	0.227522	0.376401
527	H	0.768505	0.1225	0.376457
528	H	0.873537	0.145222	0.376421
529	C	0.808316	0.091213	0.373753
530	C	0.779716	0.187714	0.707051
531	C	0.904819	0.216314	0.37368
532	O	0.745673	0.162279	0.365659
533	O	0.83375	0.082601	0.365692
534	O	0.913419	0.25035	0.365575
535	C	0.767037	0.235624	0.359126
536	N	0.738703	0.215084	0.665923
537	C	0.718725	0.226267	0.644637
538	C	0.727764	0.262032	0.648522
539	N	0.755751	0.282439	0.342047
540	C	0.775836	0.271621	0.364263
541	H	0.697836	0.208779	0.625605
542	N	0.802187	0.29629	0.389944
543	H	0.816664	0.290722	0.408934
544	H	0.805795	0.320202	0.392091
545	N	0.70797	0.274638	0.62914
546	H	0.686406	0.257163	0.614394
547	N	0.786851	0.222012	0.376069
548	H	0.808817	0.238691	0.39024
549	C	0.760405	0.03061	0.359236
550	N	0.78093	0.022819	0.665996
551	C	0.769739	0.491655	0.64471
552	C	0.733971	0.464935	0.648595
553	N	0.713581	0.472514	0.342154
554	C	0.724409	0.003416	0.364376
555	H	0.787214	0.488267	0.625635
556	N	0.699754	0.005103	0.390084
557	H	0.705306	0.025168	0.409023
558	H	0.675823	0.984818	0.392184
559	N	0.721367	0.432534	0.629223
560	H	0.73884	0.428444	0.614464
561	N	0.774021	0.064049	0.376132
562	H	0.757344	0.069342	0.390303
563	C	0.965404	0.228981	0.35907
564	N	0.973186	0.257304	0.665853
565	C	0.504346	0.277284	0.644561
566	C	0.531067	0.268235	0.648422
567	N	0.523498	0.240265	0.341974
568	C	0.992602	0.220185	0.364207
569	H	0.507727	0.298144	0.625482
570	N	0.990938	0.19386	0.389924
571	H	0.970869	0.179334	0.408867
572	H	0.011221	0.190221	0.392018
573	N	0.563466	0.288028	0.62904
574	H	0.567562	0.309598	0.614308
575	N	0.931985	0.209184	0.376039
576	H	0.926703	0.187228	0.390237
577	C	0.676056	0.369009	0.62286
578	C	0.639561	0.343147	0.622332
579	C	0.626988	0.306248	0.622734
580	C	0.652857	0.295623	0.622275
581	C	0.689758	0.319948	0.956106
582	C	0.700392	0.356448	0.622309
583	H	0.644343	0.269268	0.624837
584	H	0.726737	0.374278	0.62503
585	H	0.621722	0.351658	0.624944
586	C	0.687011	0.405435	0.629423
587	C	0.715236	0.309	0.962641
588	C	0.59056	0.280762	0.629217
589	O	0.749192	0.334472	0.637802
590	O	0.661533	0.413909	0.637935
591	O	0.582073	0.246799	0.637673
592	C	0.819232	0.127796	0.712062
593	C	0.855696	0.153733	0.712295
594	C	0.868244	0.190647	0.712065
595	C	0.8423	0.201167	0.712258
596	C	0.805384	0.176805	0.045414
597	C	0.794863	0.14034	0.712291
598	H	0.850811	0.227522	0.709733
599	H	0.768505	0.1225	0.709789
600	H	0.873537	0.145222	0.709756
601	C	0.808316	0.091213	0.707084
602	C	0.779716	0.187714	0.040383
603	C	0.904819	0.216314	0.707011
604	O	0.745673	0.162279	0.698994
605	O	0.83375	0.082601	0.699027
606	O	0.913419	0.25035	0.698911
607	C	0.767037	0.235624	0.692461
608	N	0.738703	0.215084	0.999257
609	C	0.718725	0.226267	0.977972
610	C	0.727764	0.262032	0.981857
611	N	0.755751	0.282439	0.675382
612	C	0.775836	0.271621	0.697598
613	H	0.697836	0.208779	0.958937
614	N	0.802187	0.29629	0.723279
615	H	0.816664	0.290722	0.742265
616	H	0.805795	0.320202	0.725426
617	N	0.70797	0.274638	0.962472
618	H	0.686406	0.257163	0.947726
619	N	0.786851	0.222012	0.709404
620	H	0.808817	0.238691	0.723575
621	C	0.760405	0.03061	0.692571
622	N	0.78093	0.022819	0.999329
623	C	0.769739	0.491655	0.978046
624	C	0.733971	0.464935	0.981926
625	N	0.713581	0.472514	0.675489
626	C	0.724409	0.003416	0.697711
627	H	0.787214	0.488267	0.95897
628	N	0.699754	0.005103	0.723419
629	H	0.705306	0.025168	0.742355
630	H	0.675823	0.984818	0.725516
631	N	0.721367	0.432534	0.962558
632	H	0.73884	0.428444	0.947799
633	N	0.774021	0.064049	0.709467
634	H	0.757344	0.069342	0.723638
635	C	0.965404	0.228981	0.692405
636	N	0.973186	0.257304	0.999185
637	C	0.504346	0.277284	0.977896
638	C	0.531067	0.268235	0.981757
639	N	0.523498	0.240265	0.675309
640	C	0.992602	0.220185	0.697538
641	H	0.507727	0.298144	0.958817
642	N	0.990938	0.19386	0.723259
643	H	0.970869	0.179334	0.742199
644	H	0.011221	0.190221	0.725353
645	N	0.563466	0.288028	0.962376
646	H	0.567562	0.309598	0.947643
647	N	0.931985	0.209184	0.709374
648	H	0.926703	0.187228	0.723572
649	C	0.676054	0.869009	0.956195
650	C	0.639561	0.843147	0.955667
651	C	0.626987	0.806247	0.956069
652	C	0.652857	0.795622	0.955607
653	C	0.689758	0.819948	0.289439
654	C	0.700392	0.856447	0.95564
655	H	0.644343	0.769268	0.958172
656	H	0.726737	0.874277	0.958365
657	H	0.621721	0.851658	0.958275
658	C	0.68701	0.905434	0.962754
659	C	0.715236	0.808999	0.295973
660	C	0.590559	0.780762	0.962552
661	O	0.749192	0.834472	0.971138
662	O	0.661532	0.913908	0.971267
663	O	0.582073	0.746799	0.971008
664	C	0.81923	0.627795	0.045394
665	C	0.855695	0.653731	0.045626
666	C	0.868244	0.690647	0.045398
667	C	0.8423	0.701166	0.045589
668	C	0.805384	0.676804	0.378747
669	C	0.794863	0.640341	0.045625
670	H	0.850811	0.72752	0.043066
671	H	0.768505	0.6225	0.043123
672	H	0.873536	0.64522	0.043088
673	C	0.808316	0.591213	0.040418
674	C	0.779716	0.687715	0.373716
675	C	0.904818	0.716313	0.040344
676	O	0.745673	0.662279	0.032326
677	O	0.833748	0.582602	0.032358
678	O	0.913419	0.750349	0.032242
679	C	0.767036	0.735624	0.025792
680	N	0.738703	0.715084	0.332591
681	C	0.718725	0.726267	0.311304
682	C	0.727761	0.762031	0.315188
683	N	0.755751	0.782438	0.008714
684	C	0.775836	0.77162	0.030929
685	H	0.697837	0.708779	0.292269
686	N	0.802187	0.79629	0.056611
687	H	0.816663	0.790722	0.075598
688	H	0.805795	0.820202	0.058757
689	N	0.70797	0.774637	0.295806
690	H	0.686406	0.757162	0.281059
691	N	0.786852	0.722013	0.042735
692	H	0.808817	0.738691	0.056906
693	C	0.760405	0.530608	0.025903
694	N	0.780929	0.522818	0.332664
695	C	0.769739	0.991655	0.311377
696	C	0.733971	0.964935	0.31526
697	N	0.71358	0.972514	0.008821
698	C	0.72441	0.503417	0.031043
699	H	0.787214	0.988267	0.292301
700	N	0.699754	0.505101	0.05675
701	H	0.705306	0.525167	0.075688
702	H	0.675823	0.484818	0.058849
703	N	0.721367	0.932533	0.29589
704	H	0.738837	0.928443	0.281132
705	N	0.774021	0.564049	0.042799
706	H	0.757344	0.569341	0.056971
707	C	0.965404	0.72898	0.025736
708	N	0.973185	0.757303	0.332518
709	C	0.504345	0.777284	0.311228
710	C	0.531066	0.768235	0.315088
711	N	0.523499	0.740264	0.008642
712	C	0.992602	0.720185	0.030872
713	H	0.507727	0.798144	0.292149
714	N	0.990938	0.69386	0.056591
715	H	0.970869	0.679333	0.075533
716	H	0.011221	0.690221	0.058684
717	N	0.563464	0.788028	0.295707
718	H	0.56756	0.809598	0.280975
719	N	0.931985	0.709184	0.042706
720	H	0.926702	0.687227	0.056904
721	C	0.676054	0.869009	0.289527
722	C	0.639561	0.843147	0.288999
723	C	0.626987	0.806247	0.289401
724	C	0.652857	0.795622	0.288941
725	C	0.689758	0.819948	0.622774
726	C	0.700392	0.856447	0.288974
727	H	0.644343	0.769268	0.291504
728	H	0.726737	0.874277	0.291697
729	H	0.621721	0.851658	0.291608
730	C	0.68701	0.905434	0.296087
731	C	0.715236	0.808999	0.629306
732	C	0.590559	0.780762	0.295883
733	O	0.749192	0.834472	0.30447
734	O	0.661532	0.913908	0.3046
735	O	0.582073	0.746799	0.304341
736	C	0.81923	0.627795	0.378727
737	C	0.855695	0.653731	0.378959
738	C	0.868244	0.690647	0.378733
739	C	0.8423	0.701166	0.378923
740	C	0.805384	0.676804	0.712082
741	C	0.794863	0.640341	0.378959
742	H	0.850811	0.72752	0.376401
743	H	0.768505	0.6225	0.376457
744	H	0.873536	0.64522	0.376421
745	C	0.808316	0.591213	0.373753
746	C	0.779716	0.687715	0.707051
747	C	0.904818	0.716313	0.37368
748	O	0.745673	0.662279	0.365659
749	O	0.833748	0.582602	0.365692
750	O	0.913419	0.750349	0.365575
751	C	0.767036	0.735624	0.359126
752	N	0.738703	0.715084	0.665923
753	C	0.718725	0.726267	0.644637
754	C	0.727761	0.762031	0.648522
755	N	0.755751	0.782438	0.342047
756	C	0.775836	0.77162	0.364263
757	H	0.697837	0.708779	0.625605
758	N	0.802187	0.79629	0.389944
759	H	0.816663	0.790722	0.408934
760	H	0.805795	0.820202	0.392091
761	N	0.70797	0.774637	0.62914
762	H	0.686406	0.757162	0.614394
763	N	0.786852	0.722013	0.376069
764	H	0.808817	0.738691	0.39024
765	C	0.760405	0.530608	0.359236
766	N	0.780929	0.522818	0.665996
767	C	0.769739	0.991655	0.64471
768	C	0.733971	0.964935	0.648595
769	N	0.71358	0.972514	0.342154
770	C	0.72441	0.503417	0.364376
771	H	0.787214	0.988267	0.625635
772	N	0.699754	0.505101	0.390084
773	H	0.705306	0.525167	0.409023
774	H	0.675823	0.484818	0.392184
775	N	0.721367	0.932533	0.629223
776	H	0.738837	0.928443	0.614464
777	N	0.774021	0.564049	0.376132
778	H	0.757344	0.569341	0.390303
779	C	0.965404	0.72898	0.35907
780	N	0.973185	0.757303	0.665853
781	C	0.504345	0.777284	0.644561
782	C	0.531066	0.768235	0.648422
783	N	0.523499	0.740264	0.341974
784	C	0.992602	0.720185	0.364207
785	H	0.507727	0.798144	0.625482
786	N	0.990938	0.69386	0.389924
787	H	0.970869	0.679333	0.408867
788	H	0.011221	0.690221	0.392018
789	N	0.563464	0.788028	0.62904
790	H	0.56756	0.809598	0.614308
791	N	0.931985	0.709184	0.376039
792	H	0.926702	0.687227	0.390237
793	C	0.676054	0.869009	0.62286
794	C	0.639561	0.843147	0.622332
795	C	0.626987	0.806247	0.622734
796	C	0.652857	0.795622	0.622275
797	C	0.689758	0.819948	0.956106
798	C	0.700392	0.856447	0.622309
799	H	0.644343	0.769268	0.624837
800	H	0.726737	0.874277	0.62503
801	H	0.621721	0.851658	0.624944
802	C	0.68701	0.905434	0.629423
803	C	0.715236	0.808999	0.962641
804	C	0.590559	0.780762	0.629217
805	O	0.749192	0.834472	0.637802
806	O	0.661532	0.913908	0.637935
807	O	0.582073	0.746799	0.637673
808	C	0.81923	0.627795	0.712062
809	C	0.855695	0.653731	0.712295
810	C	0.868244	0.690647	0.712065
811	C	0.8423	0.701166	0.712258
812	C	0.805384	0.676804	0.045414
813	C	0.794863	0.640341	0.712291
814	H	0.850811	0.72752	0.709733
815	H	0.768505	0.6225	0.709789
816	H	0.873536	0.64522	0.709756
817	C	0.808316	0.591213	0.707084
818	C	0.779716	0.687715	0.040383
819	C	0.904818	0.716313	0.707011
820	O	0.745673	0.662279	0.698994
821	O	0.833748	0.582602	0.699027
822	O	0.913419	0.750349	0.698911
823	C	0.767036	0.735624	0.692461
824	N	0.738703	0.715084	0.999257
825	C	0.718725	0.726267	0.977972
826	C	0.727761	0.762031	0.981857
827	N	0.755751	0.782438	0.675382
828	C	0.775836	0.77162	0.697598
829	H	0.697837	0.708779	0.958937
830	N	0.802187	0.79629	0.723279
831	H	0.816663	0.790722	0.742265
832	H	0.805795	0.820202	0.725426
833	N	0.70797	0.774637	0.962472
834	H	0.686406	0.757162	0.947726
835	N	0.786852	0.722013	0.709404
836	H	0.808817	0.738691	0.723575
837	C	0.760405	0.530608	0.692571
838	N	0.780929	0.522818	0.999329
839	C	0.769739	0.991655	0.978046
840	C	0.733971	0.964935	0.981926
841	N	0.71358	0.972514	0.675489
842	C	0.72441	0.503417	0.697711
843	H	0.787214	0.988267	0.95897
844	N	0.699754	0.505101	0.723419
845	H	0.705306	0.525167	0.742355
846	H	0.675823	0.484818	0.725516
847	N	0.721367	0.932533	0.962558
848	H	0.738837	0.928443	0.947799
849	N	0.774021	0.564049	0.709467
850	H	0.757344	0.569341	0.723638
851	C	0.965404	0.72898	0.692405
852	N	0.973185	0.757303	0.999185
853	C	0.504345	0.777284	0.977896
854	C	0.531066	0.768235	0.981757
855	N	0.523499	0.740264	0.675309
856	C	0.992602	0.720185	0.697538
857	H	0.507727	0.798144	0.958817
858	N	0.990938	0.69386	0.723259
859	H	0.970869	0.679333	0.742199
860	H	0.011221	0.690221	0.725353
861	N	0.563464	0.788028	0.962376
862	H	0.56756	0.809598	0.947643
863	N	0.931985	0.709184	0.709374
864	H	0.926702	0.687227	0.723572
