data_C432H216N144O216_2018-02-15_10:32:50
#******************************************
#
# CIF file created by Zeo++
# Zeo++ is an open source package to
# analyze microporous materials
#
#*******************************************

_cell_length_a		43.8293   
_cell_length_b		43.8294   
_cell_length_c		30.083   
_cell_angle_alpha		90   
_cell_angle_beta		90   
_cell_angle_gamma		120   

_symmetry_space_group_name_H-M		'P1'
_symmetry_Int_Tables_number		1
_symmetry_cell_setting		Monoclinic

loop_
_symmetry_equiv_pos_as_xyz
'+x,+y,+z'

loop_
_atom_site_label
_atom_site_type_symbol
_atom_site_fract_x
_atom_site_fract_y
_atom_site_fract_z
1	C	0.174531	0.368498	0.956839
2	C	0.138709	0.341625	0.956663
3	C	0.128033	0.305329	0.956796
4	C	0.154911	0.296385	0.956666
5	C	0.191208	0.322006	0.290155
6	C	0.20016	0.357833	0.956633
7	H	0.147702	0.270432	0.959489
8	H	0.22611	0.37657	0.959552
9	H	0.119965	0.348836	0.959475
10	C	0.184022	0.404364	0.962533
11	C	0.217584	0.312519	0.295878
12	C	0.092168	0.27895	0.962484
13	O	0.251172	0.338388	0.970708
14	O	0.158158	0.412081	0.970747
15	O	0.084448	0.245361	0.970651
16	C	0.321335	0.128744	0.040363
17	C	0.357157	0.155618	0.040553
18	C	0.367822	0.191911	0.040409
19	C	0.340938	0.20085	0.040576
20	C	0.304643	0.175226	0.373776
21	C	0.295703	0.139403	0.040567
22	H	0.348142	0.226804	0.037778
23	H	0.269746	0.120658	0.037758
24	H	0.375904	0.148417	0.03768
25	C	0.311848	0.092878	0.034678
26	C	0.278253	0.184701	0.368121
27	C	0.403683	0.218298	0.034705
28	O	0.244675	0.158837	0.026559
29	O	0.337719	0.085161	0.0265
30	O	0.411392	0.251882	0.02653
31	C	0.230495	0.264945	0.310013
32	C	0.228024	0.233608	0.292789
33	C	0.24549	0.218095	0.31457
34	C	0.265359	0.232282	0.020622
35	C	0.267832	0.263622	0.037842
36	H	0.24509	0.197023	0.299451
37	C	0.250384	0.27915	0.01605
38	H	0.250764	0.300208	0.031181
39	N	0.286072	0.278015	0.078249
40	N	0.209774	0.219213	0.252389
41	O	0.265832	0.27749	0.108238
42	O	0.230008	0.219738	0.22239
43	O	0.185018	0.188109	0.257364
44	O	0.310836	0.309115	0.073282
45	N	0.211857	0.279084	0.291164
46	H	0.192658	0.263859	0.271416
47	N	0.28399	0.218141	0.039483
48	H	0.303187	0.233364	0.059238
49	C	0.231593	0.464856	0.309974
50	C	0.262931	0.493717	0.292745
51	C	0.278451	0.026699	0.314518
52	C	0.264287	0.032385	0.020589
53	C	0.232945	0.003524	0.037811
54	H	0.299523	0.047369	0.299391
55	C	0.21739	0.470554	0.016003
56	H	0.196367	0.44987	0.031186
57	N	0.218576	0.007376	0.078237
58	N	0.277325	0.489852	0.252349
59	O	0.2191	0.987647	0.10821
60	O	0.276804	0.509558	0.222344
61	O	0.308428	0.496196	0.257328
62	O	0.187478	0.001055	0.073297
63	N	0.217459	0.432069	0.291155
64	H	0.232683	0.428091	0.271408
65	N	0.278421	0.065167	0.039421
66	H	0.263199	0.069142	0.059177
67	C	0.031687	0.266043	0.309949
68	C	0.002827	0.268528	0.292733
69	C	0.46986	0.251111	0.314548
70	C	0.464175	0.231231	0.020593
71	C	0.493033	0.228732	0.037791
72	H	0.449179	0.25147	0.299398
73	C	0.025997	0.246139	0.01597
74	H	0.046676	0.245784	0.031132
75	N	0.489181	0.2105	0.078207
76	N	0.006675	0.286761	0.252321
77	O	0.508919	0.230739	0.108179
78	O	0.986944	0.266523	0.222343
79	O	0.000358	0.311539	0.257283
80	O	0.495485	0.185714	0.073246
81	N	0.064463	0.28468	0.291096
82	H	0.068442	0.303883	0.271353
83	N	0.431394	0.21258	0.039429
84	H	0.427418	0.193373	0.059167
85	C	0.174531	0.368498	0.290173
86	C	0.138709	0.341625	0.289995
87	C	0.128033	0.305329	0.290128
88	C	0.154911	0.296385	0.289999
89	C	0.191208	0.322006	0.623488
90	C	0.20016	0.357833	0.289965
91	H	0.147702	0.270432	0.292823
92	H	0.22611	0.37657	0.292885
93	H	0.119965	0.348836	0.29281
94	C	0.184022	0.404364	0.295866
95	C	0.217584	0.312519	0.629212
96	C	0.092168	0.27895	0.295816
97	O	0.251172	0.338388	0.304042
98	O	0.158158	0.412081	0.304082
99	O	0.084448	0.245361	0.303985
100	C	0.321335	0.128744	0.373696
101	C	0.357157	0.155618	0.373886
102	C	0.367822	0.191911	0.373743
103	C	0.340938	0.20085	0.373909
104	C	0.304643	0.175226	0.70711
105	C	0.295703	0.139403	0.373902
106	H	0.348142	0.226804	0.37111
107	H	0.269746	0.120658	0.37109
108	H	0.375904	0.148417	0.371013
109	C	0.311848	0.092878	0.368012
110	C	0.278253	0.184701	0.701456
111	C	0.403683	0.218298	0.368038
112	O	0.244675	0.158837	0.359894
113	O	0.337719	0.085161	0.359834
114	O	0.411392	0.251882	0.359864
115	C	0.230495	0.264945	0.643347
116	C	0.228024	0.233608	0.626121
117	C	0.24549	0.218095	0.647904
118	C	0.265359	0.232282	0.353954
119	C	0.267832	0.263622	0.371176
120	H	0.24509	0.197023	0.632786
121	C	0.250384	0.27915	0.349383
122	H	0.250764	0.300208	0.364515
123	N	0.286072	0.278015	0.411581
124	N	0.209774	0.219213	0.585723
125	O	0.265832	0.27749	0.441572
126	O	0.230008	0.219738	0.555722
127	O	0.185018	0.188109	0.590696
128	O	0.310836	0.309115	0.406615
129	N	0.211857	0.279084	0.624499
130	H	0.192658	0.263859	0.60475
131	N	0.28399	0.218141	0.372815
132	H	0.303187	0.233364	0.39257
133	C	0.231593	0.464856	0.643307
134	C	0.262931	0.493717	0.626078
135	C	0.278451	0.026699	0.647851
136	C	0.264287	0.032385	0.353924
137	C	0.232945	0.003524	0.371143
138	H	0.299523	0.047369	0.632723
139	C	0.21739	0.470554	0.349337
140	H	0.196367	0.44987	0.364518
141	N	0.218576	0.007376	0.411571
142	N	0.277325	0.489852	0.585683
143	O	0.2191	0.987647	0.441542
144	O	0.276804	0.509558	0.555676
145	O	0.308428	0.496196	0.590662
146	O	0.187478	0.001055	0.406632
147	N	0.217459	0.432069	0.624489
148	H	0.232683	0.428091	0.60474
149	N	0.278421	0.065167	0.372755
150	H	0.263199	0.069142	0.392511
151	C	0.031687	0.266043	0.643283
152	C	0.002827	0.268528	0.626068
153	C	0.46986	0.251111	0.647881
154	C	0.464175	0.231231	0.353927
155	C	0.493033	0.228732	0.371123
156	H	0.449179	0.25147	0.632733
157	C	0.025997	0.246139	0.349304
158	H	0.046676	0.245784	0.364465
159	N	0.489181	0.2105	0.411541
160	N	0.006675	0.286761	0.585653
161	O	0.508919	0.230739	0.441512
162	O	0.986944	0.266523	0.555676
163	O	0.000358	0.311539	0.590616
164	O	0.495485	0.185714	0.406578
165	N	0.064463	0.28468	0.624429
166	H	0.068442	0.303883	0.604687
167	N	0.431394	0.21258	0.372762
168	H	0.427418	0.193373	0.392501
169	C	0.174531	0.368498	0.623505
170	C	0.138709	0.341625	0.623329
171	C	0.128033	0.305329	0.623462
172	C	0.154911	0.296385	0.623332
173	C	0.191208	0.322006	0.956823
174	C	0.20016	0.357833	0.623299
175	H	0.147702	0.270432	0.626158
176	H	0.22611	0.37657	0.626217
177	H	0.119965	0.348836	0.626144
178	C	0.184022	0.404364	0.629199
179	C	0.217584	0.312519	0.962543
180	C	0.092168	0.27895	0.629149
181	O	0.251172	0.338388	0.637376
182	O	0.158158	0.412081	0.637416
183	O	0.084448	0.245361	0.637317
184	C	0.321335	0.128744	0.70703
185	C	0.357157	0.155618	0.70722
186	C	0.367822	0.191911	0.707077
187	C	0.340938	0.20085	0.707243
188	C	0.304643	0.175226	0.040444
189	C	0.295703	0.139403	0.707233
190	H	0.348142	0.226804	0.704444
191	H	0.269746	0.120658	0.704424
192	H	0.375904	0.148417	0.704348
193	C	0.311848	0.092878	0.701346
194	C	0.278253	0.184701	0.034789
195	C	0.403683	0.218298	0.701373
196	O	0.244675	0.158837	0.693225
197	O	0.337719	0.085161	0.693165
198	O	0.411392	0.251882	0.693199
199	C	0.230495	0.264945	0.976681
200	C	0.228024	0.233608	0.959455
201	C	0.24549	0.218095	0.981238
202	C	0.265359	0.232282	0.687288
203	C	0.267832	0.263622	0.704511
204	H	0.24509	0.197023	0.966117
205	C	0.250384	0.27915	0.682718
206	H	0.250764	0.300208	0.697849
207	N	0.286072	0.278015	0.744916
208	N	0.209774	0.219213	0.919057
209	O	0.265832	0.27749	0.774906
210	O	0.230008	0.219738	0.889057
211	O	0.185018	0.188109	0.92403
212	O	0.310836	0.309115	0.739949
213	N	0.211857	0.279084	0.95783
214	H	0.192658	0.263859	0.938081
215	N	0.28399	0.218141	0.70615
216	H	0.303187	0.233364	0.725905
217	C	0.231593	0.464856	0.976641
218	C	0.262931	0.493717	0.959412
219	C	0.278451	0.026699	0.981185
220	C	0.264287	0.032385	0.687255
221	C	0.232945	0.003524	0.704477
222	H	0.299523	0.047369	0.966057
223	C	0.21739	0.470554	0.682668
224	H	0.196367	0.44987	0.697852
225	N	0.218576	0.007376	0.744902
226	N	0.277325	0.489852	0.919017
227	O	0.2191	0.987647	0.774876
228	O	0.276804	0.509558	0.88901
229	O	0.308428	0.496196	0.923993
230	O	0.187478	0.001055	0.739963
231	N	0.217459	0.432069	0.957823
232	H	0.232683	0.428091	0.938074
233	N	0.278421	0.065167	0.70609
234	H	0.263199	0.069142	0.725845
235	C	0.031687	0.266043	0.976615
236	C	0.002827	0.268528	0.959399
237	C	0.46986	0.251111	0.981215
238	C	0.464175	0.231231	0.687258
239	C	0.493033	0.228732	0.704458
240	H	0.449179	0.25147	0.966064
241	C	0.025997	0.246139	0.682638
242	H	0.046676	0.245784	0.697799
243	N	0.489181	0.2105	0.744872
244	N	0.006675	0.286761	0.918987
245	O	0.508919	0.230739	0.774846
246	O	0.986944	0.266523	0.88901
247	O	0.000358	0.311539	0.92395
248	O	0.495485	0.185714	0.739913
249	N	0.064463	0.28468	0.957763
250	H	0.068442	0.303883	0.938018
251	N	0.431394	0.21258	0.706096
252	H	0.427418	0.193373	0.725835
253	C	0.174531	0.868498	0.956839
254	C	0.138709	0.841623	0.956663
255	C	0.128032	0.80533	0.956796
256	C	0.154911	0.796386	0.956666
257	C	0.191208	0.822006	0.290155
258	C	0.200158	0.857831	0.956633
259	H	0.147701	0.77043	0.959489
260	H	0.226109	0.876568	0.959552
261	H	0.119964	0.848834	0.959475
262	C	0.184023	0.904365	0.962533
263	C	0.217583	0.812517	0.295878
264	C	0.092167	0.778948	0.962484
265	O	0.251173	0.838388	0.970708
266	O	0.158159	0.912081	0.970747
267	O	0.084447	0.74536	0.970651
268	C	0.321334	0.628742	0.040363
269	C	0.357157	0.655617	0.040553
270	C	0.367821	0.69191	0.040409
271	C	0.340938	0.700849	0.040576
272	C	0.304643	0.675226	0.373776
273	C	0.295704	0.639404	0.040567
274	H	0.348142	0.726802	0.037778
275	H	0.269745	0.620657	0.037758
276	H	0.375905	0.648417	0.03768
277	C	0.31185	0.592878	0.034678
278	C	0.278253	0.6847	0.368121
279	C	0.403682	0.718298	0.034705
280	O	0.244675	0.658836	0.026559
281	O	0.337718	0.585159	0.0265
282	O	0.411394	0.751883	0.02653
283	C	0.230496	0.764945	0.310013
284	C	0.228024	0.733607	0.292789
285	C	0.24549	0.718095	0.31457
286	C	0.265359	0.732282	0.020622
287	C	0.267831	0.76362	0.037842
288	H	0.24509	0.697021	0.299451
289	C	0.250383	0.779148	0.01605
290	H	0.250763	0.800206	0.031181
291	N	0.286072	0.778012	0.078249
292	N	0.209774	0.719212	0.252389
293	O	0.265833	0.777491	0.108238
294	O	0.230008	0.719736	0.22239
295	O	0.185018	0.688109	0.257364
296	O	0.310836	0.809116	0.073282
297	N	0.211857	0.779085	0.291164
298	H	0.192657	0.763857	0.271416
299	N	0.28399	0.71814	0.039483
300	H	0.303186	0.733362	0.059238
301	C	0.231592	0.964856	0.309974
302	C	0.262931	0.993715	0.292745
303	C	0.278451	0.526699	0.314518
304	C	0.264287	0.532384	0.020589
305	C	0.232944	0.503523	0.037811
306	H	0.299524	0.547369	0.299391
307	C	0.21739	0.970552	0.016003
308	H	0.196367	0.949871	0.031186
309	N	0.218576	0.507374	0.078237
310	N	0.277325	0.989853	0.252349
311	O	0.219099	0.487647	0.10821
312	O	0.276804	0.00956	0.222344
313	O	0.308427	0.996194	0.257328
314	O	0.187478	0.501054	0.073297
315	N	0.21746	0.932069	0.291155
316	H	0.232683	0.928091	0.271408
317	N	0.278421	0.565166	0.039421
318	H	0.263199	0.569141	0.059177
319	C	0.031687	0.766044	0.309949
320	C	0.002828	0.768528	0.292733
321	C	0.46986	0.751111	0.314548
322	C	0.464174	0.731231	0.020593
323	C	0.493032	0.728731	0.037791
324	H	0.449179	0.751469	0.299398
325	C	0.025997	0.74614	0.01597
326	H	0.046675	0.745784	0.031132
327	N	0.48918	0.7105	0.078207
328	N	0.006677	0.786762	0.252321
329	O	0.50892	0.730738	0.108179
330	O	0.986944	0.76652	0.222343
331	O	0.000359	0.811539	0.257283
332	O	0.495486	0.685714	0.073246
333	N	0.064463	0.784678	0.291096
334	H	0.068442	0.803883	0.271353
335	N	0.431394	0.712578	0.039429
336	H	0.427418	0.693373	0.059168
337	C	0.174531	0.868498	0.290173
338	C	0.138709	0.841623	0.289995
339	C	0.128032	0.80533	0.290128
340	C	0.154911	0.796386	0.289999
341	C	0.191208	0.822006	0.623488
342	C	0.200158	0.857831	0.289965
343	H	0.147701	0.77043	0.292823
344	H	0.226109	0.876568	0.292885
345	H	0.119964	0.848834	0.29281
346	C	0.184023	0.904365	0.295866
347	C	0.217583	0.812517	0.629212
348	C	0.092167	0.778948	0.295816
349	O	0.251173	0.838388	0.304042
350	O	0.158159	0.912081	0.304082
351	O	0.084447	0.74536	0.303985
352	C	0.321334	0.628742	0.373696
353	C	0.357157	0.655617	0.373886
354	C	0.367821	0.69191	0.373743
355	C	0.340938	0.700849	0.373909
356	C	0.304643	0.675226	0.70711
357	C	0.295704	0.639404	0.373902
358	H	0.348142	0.726802	0.37111
359	H	0.269745	0.620657	0.37109
360	H	0.375905	0.648417	0.371013
361	C	0.31185	0.592878	0.368012
362	C	0.278253	0.6847	0.701456
363	C	0.403682	0.718298	0.368038
364	O	0.244675	0.658836	0.359894
365	O	0.337718	0.585159	0.359834
366	O	0.411394	0.751883	0.359864
367	C	0.230496	0.764945	0.643347
368	C	0.228024	0.733607	0.626121
369	C	0.24549	0.718095	0.647904
370	C	0.265359	0.732282	0.353954
371	C	0.267831	0.76362	0.371176
372	H	0.24509	0.697021	0.632786
373	C	0.250383	0.779148	0.349383
374	H	0.250763	0.800206	0.364515
375	N	0.286072	0.778012	0.411581
376	N	0.209774	0.719212	0.585723
377	O	0.265833	0.777491	0.441572
378	O	0.230008	0.719736	0.555722
379	O	0.185018	0.688109	0.590696
380	O	0.310836	0.809116	0.406615
381	N	0.211857	0.779085	0.624499
382	H	0.192657	0.763857	0.60475
383	N	0.28399	0.71814	0.372815
384	H	0.303186	0.733362	0.39257
385	C	0.231592	0.964856	0.643307
386	C	0.262931	0.993715	0.626078
387	C	0.278451	0.526699	0.647851
388	C	0.264287	0.532384	0.353924
389	C	0.232944	0.503523	0.371143
390	H	0.299524	0.547369	0.632723
391	C	0.21739	0.970552	0.349337
392	H	0.196367	0.949871	0.364518
393	N	0.218576	0.507374	0.411571
394	N	0.277325	0.989853	0.585683
395	O	0.219099	0.487647	0.441542
396	O	0.276804	0.00956	0.555676
397	O	0.308427	0.996194	0.590662
398	O	0.187478	0.501054	0.406632
399	N	0.21746	0.932069	0.624489
400	H	0.232683	0.928091	0.60474
401	N	0.278421	0.565166	0.372755
402	H	0.263199	0.569141	0.392511
403	C	0.031687	0.766044	0.643283
404	C	0.002828	0.768528	0.626068
405	C	0.46986	0.751111	0.647881
406	C	0.464174	0.731231	0.353927
407	C	0.493032	0.728731	0.371123
408	H	0.449179	0.751469	0.632733
409	C	0.025997	0.74614	0.349304
410	H	0.046675	0.745784	0.364465
411	N	0.48918	0.7105	0.411541
412	N	0.006677	0.786762	0.585653
413	O	0.50892	0.730738	0.441512
414	O	0.986944	0.76652	0.555676
415	O	0.000359	0.811539	0.590616
416	O	0.495486	0.685714	0.406578
417	N	0.064463	0.784678	0.624429
418	H	0.068442	0.803883	0.604687
419	N	0.431394	0.712578	0.372762
420	H	0.427418	0.693373	0.392501
421	C	0.174531	0.868498	0.623505
422	C	0.138709	0.841623	0.623329
423	C	0.128032	0.80533	0.623462
424	C	0.154911	0.796386	0.623332
425	C	0.191208	0.822006	0.956823
426	C	0.200158	0.857831	0.623299
427	H	0.147701	0.77043	0.626158
428	H	0.226109	0.876568	0.626217
429	H	0.119964	0.848834	0.626144
430	C	0.184023	0.904365	0.629199
431	C	0.217583	0.812517	0.962543
432	C	0.092167	0.778948	0.629149
433	O	0.251173	0.838388	0.637376
434	O	0.158159	0.912081	0.637416
435	O	0.084447	0.74536	0.637317
436	C	0.321334	0.628742	0.70703
437	C	0.357157	0.655617	0.70722
438	C	0.367821	0.69191	0.707077
439	C	0.340938	0.700849	0.707243
440	C	0.304643	0.675226	0.040444
441	C	0.295704	0.639404	0.707233
442	H	0.348142	0.726802	0.704444
443	H	0.269745	0.620657	0.704424
444	H	0.375905	0.648417	0.704348
445	C	0.31185	0.592878	0.701346
446	C	0.278253	0.6847	0.034789
447	C	0.403682	0.718298	0.701373
448	O	0.244675	0.658836	0.693225
449	O	0.337718	0.585159	0.693165
450	O	0.411394	0.751883	0.693199
451	C	0.230496	0.764945	0.976681
452	C	0.228024	0.733607	0.959455
453	C	0.24549	0.718095	0.981238
454	C	0.265359	0.732282	0.687288
455	C	0.267831	0.76362	0.704511
456	H	0.24509	0.697021	0.966117
457	C	0.250383	0.779148	0.682718
458	H	0.250763	0.800206	0.697849
459	N	0.286072	0.778012	0.744916
460	N	0.209774	0.719212	0.919057
461	O	0.265833	0.777491	0.774906
462	O	0.230008	0.719736	0.889057
463	O	0.185018	0.688109	0.92403
464	O	0.310836	0.809116	0.739949
465	N	0.211857	0.779085	0.95783
466	H	0.192657	0.763857	0.938081
467	N	0.28399	0.71814	0.70615
468	H	0.303186	0.733362	0.725905
469	C	0.231592	0.964856	0.976641
470	C	0.262931	0.993715	0.959412
471	C	0.278451	0.526699	0.981185
472	C	0.264287	0.532384	0.687255
473	C	0.232944	0.503523	0.704477
474	H	0.299524	0.547369	0.966057
475	C	0.21739	0.970552	0.682668
476	H	0.196367	0.949871	0.697852
477	N	0.218576	0.507374	0.744902
478	N	0.277325	0.989853	0.919017
479	O	0.219099	0.487647	0.774876
480	O	0.276804	0.00956	0.88901
481	O	0.308427	0.996194	0.923993
482	O	0.187478	0.501054	0.739963
483	N	0.21746	0.932069	0.957823
484	H	0.232683	0.928091	0.938074
485	N	0.278421	0.565166	0.70609
486	H	0.263199	0.569141	0.725845
487	C	0.031687	0.766044	0.976615
488	C	0.002828	0.768528	0.959399
489	C	0.46986	0.751111	0.981215
490	C	0.464174	0.731231	0.687258
491	C	0.493032	0.728731	0.704458
492	H	0.449179	0.751469	0.966064
493	C	0.025997	0.74614	0.682638
494	H	0.046675	0.745784	0.697799
495	N	0.48918	0.7105	0.744872
496	N	0.006677	0.786762	0.918987
497	O	0.50892	0.730738	0.774846
498	O	0.986944	0.76652	0.88901
499	O	0.000359	0.811539	0.92395
500	O	0.495486	0.685714	0.739913
501	N	0.064463	0.784678	0.957763
502	H	0.068442	0.803883	0.938018
503	N	0.431394	0.712578	0.706096
504	H	0.427418	0.693373	0.725835
505	C	0.674531	0.368498	0.956839
506	C	0.63871	0.341625	0.956663
507	C	0.628034	0.305329	0.956796
508	C	0.654911	0.296385	0.956666
509	C	0.691208	0.322006	0.290155
510	C	0.70016	0.357833	0.956633
511	H	0.647702	0.270432	0.959489
512	H	0.72611	0.37657	0.959552
513	H	0.619965	0.348836	0.959475
514	C	0.684022	0.404364	0.962533
515	C	0.717585	0.312519	0.295878
516	C	0.592168	0.27895	0.962484
517	O	0.751172	0.338388	0.970708
518	O	0.658158	0.412081	0.970747
519	O	0.58445	0.245361	0.970651
520	C	0.821334	0.128744	0.040363
521	C	0.857158	0.155618	0.040553
522	C	0.867823	0.191911	0.040409
523	C	0.840939	0.20085	0.040576
524	C	0.804643	0.175226	0.373776
525	C	0.795703	0.139403	0.040567
526	H	0.848144	0.226804	0.037778
527	H	0.769745	0.120658	0.037758
528	H	0.875905	0.148417	0.03768
529	C	0.81185	0.092878	0.034678
530	C	0.778253	0.184701	0.368121
531	C	0.903681	0.218298	0.034705
532	O	0.744675	0.158837	0.026559
533	O	0.837718	0.085161	0.0265
534	O	0.911393	0.251882	0.02653
535	C	0.730495	0.264945	0.310013
536	C	0.728026	0.233608	0.292789
537	C	0.74549	0.218095	0.31457
538	C	0.76536	0.232282	0.020622
539	C	0.767831	0.263622	0.037842
540	H	0.745091	0.197023	0.299451
541	C	0.750384	0.27915	0.01605
542	H	0.750764	0.300208	0.031181
543	N	0.786072	0.278015	0.078249
544	N	0.709776	0.219213	0.252389
545	O	0.765833	0.27749	0.108238
546	O	0.730009	0.219738	0.22239
547	O	0.685018	0.188109	0.257364
548	O	0.810836	0.309115	0.073282
549	N	0.711858	0.279084	0.291164
550	H	0.692658	0.263859	0.271416
551	N	0.783991	0.218141	0.039483
552	H	0.803186	0.233364	0.059238
553	C	0.731594	0.464856	0.309974
554	C	0.762932	0.493717	0.292745
555	C	0.778452	0.026699	0.314518
556	C	0.764288	0.032385	0.020589
557	C	0.732944	0.003524	0.037811
558	H	0.799524	0.047369	0.299391
559	C	0.717391	0.470554	0.016003
560	H	0.696367	0.44987	0.031186
561	N	0.718577	0.007376	0.078237
562	N	0.777324	0.489852	0.252349
563	O	0.7191	0.987647	0.10821
564	O	0.776805	0.509558	0.222344
565	O	0.808429	0.496196	0.257328
566	O	0.687479	0.001055	0.073297
567	N	0.71746	0.432069	0.291155
568	H	0.732683	0.428091	0.271408
569	N	0.778422	0.065167	0.039421
570	H	0.7632	0.069142	0.059177
571	C	0.531687	0.266043	0.309949
572	C	0.502828	0.268528	0.292733
573	C	0.969861	0.251111	0.314548
574	C	0.964174	0.231231	0.020593
575	C	0.993032	0.228732	0.037791
576	H	0.94918	0.25147	0.299398
577	C	0.525997	0.246139	0.01597
578	H	0.546675	0.245784	0.031132
579	N	0.98918	0.2105	0.078207
580	N	0.506677	0.286761	0.252321
581	O	0.008919	0.230739	0.108179
582	O	0.486943	0.266523	0.222343
583	O	0.500359	0.311539	0.257283
584	O	0.995486	0.185714	0.073246
585	N	0.564464	0.28468	0.291096
586	H	0.568442	0.303883	0.271353
587	N	0.931393	0.21258	0.039429
588	H	0.927419	0.193373	0.059167
589	C	0.674531	0.368498	0.290173
590	C	0.63871	0.341625	0.289995
591	C	0.628034	0.305329	0.290128
592	C	0.654911	0.296385	0.289999
593	C	0.691208	0.322006	0.623488
594	C	0.70016	0.357833	0.289965
595	H	0.647702	0.270432	0.292823
596	H	0.72611	0.37657	0.292885
597	H	0.619965	0.348836	0.29281
598	C	0.684022	0.404364	0.295866
599	C	0.717585	0.312519	0.629212
600	C	0.592168	0.27895	0.295816
601	O	0.751172	0.338388	0.304042
602	O	0.658158	0.412081	0.304082
603	O	0.58445	0.245361	0.303985
604	C	0.821334	0.128744	0.373696
605	C	0.857158	0.155618	0.373886
606	C	0.867823	0.191911	0.373743
607	C	0.840939	0.20085	0.373909
608	C	0.804643	0.175226	0.70711
609	C	0.795703	0.139403	0.373902
610	H	0.848144	0.226804	0.37111
611	H	0.769745	0.120658	0.37109
612	H	0.875905	0.148417	0.371013
613	C	0.81185	0.092878	0.368012
614	C	0.778253	0.184701	0.701456
615	C	0.903681	0.218298	0.368038
616	O	0.744675	0.158837	0.359894
617	O	0.837718	0.085161	0.359834
618	O	0.911393	0.251882	0.359864
619	C	0.730495	0.264945	0.643347
620	C	0.728026	0.233608	0.626121
621	C	0.74549	0.218095	0.647904
622	C	0.76536	0.232282	0.353954
623	C	0.767831	0.263622	0.371176
624	H	0.745091	0.197023	0.632786
625	C	0.750384	0.27915	0.349383
626	H	0.750764	0.300208	0.364515
627	N	0.786072	0.278015	0.411581
628	N	0.709776	0.219213	0.585723
629	O	0.765833	0.27749	0.441572
630	O	0.730009	0.219738	0.555722
631	O	0.685018	0.188109	0.590696
632	O	0.810836	0.309115	0.406615
633	N	0.711858	0.279084	0.624499
634	H	0.692658	0.263859	0.60475
635	N	0.783991	0.218141	0.372815
636	H	0.803186	0.233364	0.39257
637	C	0.731594	0.464856	0.643307
638	C	0.762932	0.493717	0.626078
639	C	0.778452	0.026699	0.647851
640	C	0.764288	0.032385	0.353924
641	C	0.732944	0.003524	0.371143
642	H	0.799524	0.047369	0.632723
643	C	0.717391	0.470554	0.349337
644	H	0.696367	0.44987	0.364518
645	N	0.718577	0.007376	0.411571
646	N	0.777324	0.489852	0.585683
647	O	0.7191	0.987647	0.441542
648	O	0.776805	0.509558	0.555676
649	O	0.808429	0.496196	0.590662
650	O	0.687479	0.001055	0.406632
651	N	0.71746	0.432069	0.624489
652	H	0.732683	0.428091	0.60474
653	N	0.778422	0.065167	0.372755
654	H	0.7632	0.069142	0.392511
655	C	0.531687	0.266043	0.643283
656	C	0.502828	0.268528	0.626068
657	C	0.969861	0.251111	0.647881
658	C	0.964174	0.231231	0.353927
659	C	0.993032	0.228732	0.371123
660	H	0.94918	0.25147	0.632733
661	C	0.525997	0.246139	0.349304
662	H	0.546675	0.245784	0.364465
663	N	0.98918	0.2105	0.411541
664	N	0.506677	0.286761	0.585653
665	O	0.008919	0.230739	0.441512
666	O	0.486943	0.266523	0.555676
667	O	0.500359	0.311539	0.590616
668	O	0.995486	0.185714	0.406578
669	N	0.564464	0.28468	0.624429
670	H	0.568442	0.303883	0.604687
671	N	0.931393	0.21258	0.372762
672	H	0.927419	0.193373	0.392501
673	C	0.674531	0.368498	0.623505
674	C	0.63871	0.341625	0.623329
675	C	0.628034	0.305329	0.623462
676	C	0.654911	0.296385	0.623332
677	C	0.691208	0.322006	0.956823
678	C	0.70016	0.357833	0.623299
679	H	0.647702	0.270432	0.626158
680	H	0.72611	0.37657	0.626217
681	H	0.619965	0.348836	0.626144
682	C	0.684022	0.404364	0.629199
683	C	0.717585	0.312519	0.962543
684	C	0.592168	0.27895	0.629149
685	O	0.751172	0.338388	0.637376
686	O	0.658158	0.412081	0.637416
687	O	0.58445	0.245361	0.637317
688	C	0.821334	0.128744	0.70703
689	C	0.857158	0.155618	0.70722
690	C	0.867823	0.191911	0.707077
691	C	0.840939	0.20085	0.707243
692	C	0.804643	0.175226	0.040444
693	C	0.795703	0.139403	0.707233
694	H	0.848144	0.226804	0.704444
695	H	0.769745	0.120658	0.704424
696	H	0.875905	0.148417	0.704348
697	C	0.81185	0.092878	0.701346
698	C	0.778253	0.184701	0.034789
699	C	0.903681	0.218298	0.701373
700	O	0.744675	0.158837	0.693225
701	O	0.837718	0.085161	0.693165
702	O	0.911393	0.251882	0.693199
703	C	0.730495	0.264945	0.976681
704	C	0.728026	0.233608	0.959455
705	C	0.74549	0.218095	0.981238
706	C	0.76536	0.232282	0.687288
707	C	0.767831	0.263622	0.704511
708	H	0.745091	0.197023	0.966117
709	C	0.750384	0.27915	0.682718
710	H	0.750764	0.300208	0.697849
711	N	0.786072	0.278015	0.744916
712	N	0.709776	0.219213	0.919057
713	O	0.765833	0.27749	0.774906
714	O	0.730009	0.219738	0.889057
715	O	0.685018	0.188109	0.92403
716	O	0.810836	0.309115	0.739949
717	N	0.711858	0.279084	0.95783
718	H	0.692658	0.263859	0.938081
719	N	0.783991	0.218141	0.70615
720	H	0.803186	0.233364	0.725905
721	C	0.731594	0.464856	0.976641
722	C	0.762932	0.493717	0.959412
723	C	0.778452	0.026699	0.981185
724	C	0.764288	0.032385	0.687255
725	C	0.732944	0.003524	0.704477
726	H	0.799524	0.047369	0.966057
727	C	0.717391	0.470554	0.682668
728	H	0.696367	0.44987	0.697852
729	N	0.718577	0.007376	0.744902
730	N	0.777324	0.489852	0.919017
731	O	0.7191	0.987647	0.774876
732	O	0.776805	0.509558	0.88901
733	O	0.808429	0.496196	0.923993
734	O	0.687479	0.001055	0.739963
735	N	0.71746	0.432069	0.957823
736	H	0.732683	0.428091	0.938074
737	N	0.778422	0.065167	0.70609
738	H	0.7632	0.069142	0.725845
739	C	0.531687	0.266043	0.976615
740	C	0.502828	0.268528	0.959399
741	C	0.969861	0.251111	0.981215
742	C	0.964174	0.231231	0.687258
743	C	0.993032	0.228732	0.704458
744	H	0.94918	0.25147	0.966064
745	C	0.525997	0.246139	0.682638
746	H	0.546675	0.245784	0.697799
747	N	0.98918	0.2105	0.744872
748	N	0.506677	0.286761	0.918987
749	O	0.008919	0.230739	0.774846
750	O	0.486943	0.266523	0.88901
751	O	0.500359	0.311539	0.92395
752	O	0.995486	0.185714	0.739913
753	N	0.564464	0.28468	0.957763
754	H	0.568442	0.303883	0.938018
755	N	0.931393	0.21258	0.706096
756	H	0.927419	0.193373	0.725835
757	C	0.674532	0.868498	0.956839
758	C	0.638709	0.841623	0.956663
759	C	0.628034	0.80533	0.956796
760	C	0.654912	0.796386	0.956666
761	C	0.691209	0.822006	0.290155
762	C	0.70016	0.857831	0.956633
763	H	0.647702	0.77043	0.959489
764	H	0.726111	0.876568	0.959552
765	H	0.619964	0.848834	0.959475
766	C	0.684024	0.904365	0.962533
767	C	0.717583	0.812517	0.295878
768	C	0.592168	0.778948	0.962484
769	O	0.751174	0.838388	0.970708
770	O	0.658159	0.912081	0.970747
771	O	0.584448	0.74536	0.970651
772	C	0.821334	0.628742	0.040363
773	C	0.857156	0.655617	0.040553
774	C	0.867822	0.69191	0.040409
775	C	0.84094	0.700849	0.040576
776	C	0.804644	0.675226	0.373776
777	C	0.795704	0.639404	0.040567
778	H	0.848144	0.726802	0.037778
779	H	0.769746	0.620657	0.037758
780	H	0.875904	0.648417	0.03768
781	C	0.811851	0.592878	0.034678
782	C	0.778253	0.6847	0.368121
783	C	0.903683	0.718298	0.034705
784	O	0.744675	0.658836	0.026559
785	O	0.837718	0.585159	0.0265
786	O	0.911395	0.751883	0.02653
787	C	0.730496	0.764945	0.310013
788	C	0.728024	0.733607	0.292789
789	C	0.745491	0.718095	0.31457
790	C	0.765359	0.732282	0.020622
791	C	0.767831	0.76362	0.037842
792	H	0.745091	0.697021	0.299451
793	C	0.750384	0.779148	0.01605
794	H	0.750764	0.800206	0.031181
795	N	0.786072	0.778012	0.078249
796	N	0.709774	0.719212	0.252389
797	O	0.765834	0.777491	0.108238
798	O	0.730007	0.719736	0.22239
799	O	0.685019	0.688109	0.257364
800	O	0.810837	0.809116	0.073282
801	N	0.711857	0.779085	0.291164
802	H	0.692658	0.763857	0.271416
803	N	0.78399	0.71814	0.039483
804	H	0.803187	0.733362	0.059238
805	C	0.731594	0.964856	0.309974
806	C	0.762932	0.993715	0.292745
807	C	0.778451	0.526699	0.314518
808	C	0.764289	0.532384	0.020589
809	C	0.732945	0.503523	0.037811
810	H	0.799525	0.547369	0.299391
811	C	0.717389	0.970552	0.016003
812	H	0.696368	0.949871	0.031186
813	N	0.718575	0.507374	0.078237
814	N	0.777325	0.989853	0.252349
815	O	0.7191	0.487647	0.10821
816	O	0.776805	0.00956	0.222344
817	O	0.808427	0.996194	0.257328
818	O	0.687477	0.501054	0.073297
819	N	0.717459	0.932069	0.291155
820	H	0.732684	0.928091	0.271408
821	N	0.778421	0.565166	0.039421
822	H	0.763201	0.569141	0.059177
823	C	0.531688	0.766044	0.309949
824	C	0.502828	0.768528	0.292733
825	C	0.96986	0.751111	0.314548
826	C	0.964175	0.731231	0.020593
827	C	0.993032	0.728731	0.037791
828	H	0.949181	0.751469	0.299398
829	C	0.525998	0.74614	0.01597
830	H	0.546676	0.745784	0.031132
831	N	0.98918	0.7105	0.078207
832	N	0.506676	0.786762	0.252321
833	O	0.008919	0.730738	0.108179
834	O	0.486943	0.76652	0.222343
835	O	0.500359	0.811539	0.257283
836	O	0.995485	0.685714	0.073246
837	N	0.564463	0.784678	0.291096
838	H	0.568443	0.803883	0.271353
839	N	0.931394	0.712578	0.039429
840	H	0.92742	0.693373	0.059168
841	C	0.674532	0.868498	0.290173
842	C	0.638709	0.841623	0.289995
843	C	0.628034	0.80533	0.290128
844	C	0.654912	0.796386	0.289999
845	C	0.691209	0.822006	0.623488
846	C	0.70016	0.857831	0.289965
847	H	0.647702	0.77043	0.292823
848	H	0.726111	0.876568	0.292885
849	H	0.619964	0.848834	0.29281
850	C	0.684024	0.904365	0.295866
851	C	0.717583	0.812517	0.629212
852	C	0.592168	0.778948	0.295816
853	O	0.751174	0.838388	0.304042
854	O	0.658159	0.912081	0.304082
855	O	0.584448	0.74536	0.303985
856	C	0.821334	0.628742	0.373696
857	C	0.857156	0.655617	0.373886
858	C	0.867822	0.69191	0.373743
859	C	0.84094	0.700849	0.373909
860	C	0.804644	0.675226	0.70711
861	C	0.795704	0.639404	0.373902
862	H	0.848144	0.726802	0.37111
863	H	0.769746	0.620657	0.37109
864	H	0.875904	0.648417	0.371013
865	C	0.811851	0.592878	0.368012
866	C	0.778253	0.6847	0.701456
867	C	0.903683	0.718298	0.368038
868	O	0.744675	0.658836	0.359894
869	O	0.837718	0.585159	0.359834
870	O	0.911395	0.751883	0.359864
871	C	0.730496	0.764945	0.643347
872	C	0.728024	0.733607	0.626121
873	C	0.745491	0.718095	0.647904
874	C	0.765359	0.732282	0.353954
875	C	0.767831	0.76362	0.371176
876	H	0.745091	0.697021	0.632786
877	C	0.750384	0.779148	0.349383
878	H	0.750764	0.800206	0.364515
879	N	0.786072	0.778012	0.411581
880	N	0.709774	0.719212	0.585723
881	O	0.765834	0.777491	0.441572
882	O	0.730007	0.719736	0.555722
883	O	0.685019	0.688109	0.590696
884	O	0.810837	0.809116	0.406615
885	N	0.711857	0.779085	0.624499
886	H	0.692658	0.763857	0.60475
887	N	0.78399	0.71814	0.372815
888	H	0.803187	0.733362	0.39257
889	C	0.731594	0.964856	0.643307
890	C	0.762932	0.993715	0.626078
891	C	0.778451	0.526699	0.647851
892	C	0.764289	0.532384	0.353924
893	C	0.732945	0.503523	0.371143
894	H	0.799525	0.547369	0.632723
895	C	0.717389	0.970552	0.349337
896	H	0.696368	0.949871	0.364518
897	N	0.718575	0.507374	0.411571
898	N	0.777325	0.989853	0.585683
899	O	0.7191	0.487647	0.441542
900	O	0.776805	0.00956	0.555676
901	O	0.808427	0.996194	0.590662
902	O	0.687477	0.501054	0.406632
903	N	0.717459	0.932069	0.624489
904	H	0.732684	0.928091	0.60474
905	N	0.778421	0.565166	0.372755
906	H	0.763201	0.569141	0.392511
907	C	0.531688	0.766044	0.643283
908	C	0.502828	0.768528	0.626068
909	C	0.96986	0.751111	0.647881
910	C	0.964175	0.731231	0.353927
911	C	0.993032	0.728731	0.371123
912	H	0.949181	0.751469	0.632733
913	C	0.525998	0.74614	0.349304
914	H	0.546676	0.745784	0.364465
915	N	0.98918	0.7105	0.411541
916	N	0.506676	0.786762	0.585653
917	O	0.008919	0.730738	0.441512
918	O	0.486943	0.76652	0.555676
919	O	0.500359	0.811539	0.590616
920	O	0.995485	0.685714	0.406578
921	N	0.564463	0.784678	0.624429
922	H	0.568443	0.803883	0.604687
923	N	0.931394	0.712578	0.372762
924	H	0.92742	0.693373	0.392501
925	C	0.674532	0.868498	0.623505
926	C	0.638709	0.841623	0.623329
927	C	0.628034	0.80533	0.623462
928	C	0.654912	0.796386	0.623332
929	C	0.691209	0.822006	0.956823
930	C	0.70016	0.857831	0.623299
931	H	0.647702	0.77043	0.626158
932	H	0.726111	0.876568	0.626217
933	H	0.619964	0.848834	0.626144
934	C	0.684024	0.904365	0.629199
935	C	0.717583	0.812517	0.962543
936	C	0.592168	0.778948	0.629149
937	O	0.751174	0.838388	0.637376
938	O	0.658159	0.912081	0.637416
939	O	0.584448	0.74536	0.637317
940	C	0.821334	0.628742	0.70703
941	C	0.857156	0.655617	0.70722
942	C	0.867822	0.69191	0.707077
943	C	0.84094	0.700849	0.707243
944	C	0.804644	0.675226	0.040444
945	C	0.795704	0.639404	0.707233
946	H	0.848144	0.726802	0.704444
947	H	0.769746	0.620657	0.704424
948	H	0.875904	0.648417	0.704348
949	C	0.811851	0.592878	0.701346
950	C	0.778253	0.6847	0.034789
951	C	0.903683	0.718298	0.701373
952	O	0.744675	0.658836	0.693225
953	O	0.837718	0.585159	0.693165
954	O	0.911395	0.751883	0.693199
955	C	0.730496	0.764945	0.976681
956	C	0.728024	0.733607	0.959455
957	C	0.745491	0.718095	0.981238
958	C	0.765359	0.732282	0.687288
959	C	0.767831	0.76362	0.704511
960	H	0.745091	0.697021	0.966117
961	C	0.750384	0.779148	0.682718
962	H	0.750764	0.800206	0.697849
963	N	0.786072	0.778012	0.744916
964	N	0.709774	0.719212	0.919057
965	O	0.765834	0.777491	0.774906
966	O	0.730007	0.719736	0.889057
967	O	0.685019	0.688109	0.92403
968	O	0.810837	0.809116	0.739949
969	N	0.711857	0.779085	0.95783
970	H	0.692658	0.763857	0.938081
971	N	0.78399	0.71814	0.70615
972	H	0.803187	0.733362	0.725905
973	C	0.731594	0.964856	0.976641
974	C	0.762932	0.993715	0.959412
975	C	0.778451	0.526699	0.981185
976	C	0.764289	0.532384	0.687255
977	C	0.732945	0.503523	0.704477
978	H	0.799525	0.547369	0.966057
979	C	0.717389	0.970552	0.682668
980	H	0.696368	0.949871	0.697852
981	N	0.718575	0.507374	0.744902
982	N	0.777325	0.989853	0.919017
983	O	0.7191	0.487647	0.774876
984	O	0.776805	0.00956	0.88901
985	O	0.808427	0.996194	0.923993
986	O	0.687477	0.501054	0.739963
987	N	0.717459	0.932069	0.957823
988	H	0.732684	0.928091	0.938074
989	N	0.778421	0.565166	0.70609
990	H	0.763201	0.569141	0.725845
991	C	0.531688	0.766044	0.976615
992	C	0.502828	0.768528	0.959399
993	C	0.96986	0.751111	0.981215
994	C	0.964175	0.731231	0.687258
995	C	0.993032	0.728731	0.704458
996	H	0.949181	0.751469	0.966064
997	C	0.525998	0.74614	0.682638
998	H	0.546676	0.745784	0.697799
999	N	0.98918	0.7105	0.744872
1000	N	0.506676	0.786762	0.918987
1001	O	0.008919	0.730738	0.774846
1002	O	0.486943	0.76652	0.88901
1003	O	0.500359	0.811539	0.92395
1004	O	0.995485	0.685714	0.739913
1005	N	0.564463	0.784678	0.957763
1006	H	0.568443	0.803883	0.938018
1007	N	0.931394	0.712578	0.706096
1008	H	0.92742	0.693373	0.725835
