data_C360H360N144_2018-02-15_10:33:55
#******************************************
#
# CIF file created by Zeo++
# Zeo++ is an open source package to
# analyze microporous materials
#
#*******************************************

_cell_length_a		43.1622   
_cell_length_b		43.1622   
_cell_length_c		30.0304   
_cell_angle_alpha		90   
_cell_angle_beta		90   
_cell_angle_gamma		120   

_symmetry_space_group_name_H-M		'P1'
_symmetry_Int_Tables_number		1
_symmetry_cell_setting		Monoclinic

loop_
_symmetry_equiv_pos_as_xyz
'+x,+y,+z'

loop_
_atom_site_label
_atom_site_type_symbol
_atom_site_fract_x
_atom_site_fract_y
_atom_site_fract_z
1	C	0.180524	0.311146	0.955879
2	N	0.144421	0.296868	0.955919
3	C	0.129608	0.318177	0.955883
4	N	0.151432	0.354282	0.955973
5	C	0.187556	0.369097	0.955946
6	N	0.201833	0.34727	0.955966
7	N	0.092046	0.30232	0.957178
8	H	0.084885	0.320571	0.946809
9	N	0.209279	0.406663	0.957265
10	H	0.234759	0.413801	0.947218
11	N	0.196379	0.289439	0.957191
12	H	0.178098	0.264001	0.946932
13	C	0.317954	0.187837	0.043101
14	N	0.354061	0.202123	0.04308
15	C	0.368877	0.180818	0.043127
16	N	0.347059	0.144712	0.043025
17	C	0.310934	0.129891	0.043041
18	N	0.296652	0.151714	0.043014
19	N	0.406439	0.196681	0.041827
20	H	0.413605	0.178434	0.052202
21	N	0.289216	0.092327	0.041718
22	H	0.263735	0.085184	0.051762
23	N	0.302097	0.209543	0.041794
24	H	0.320377	0.234982	0.052048
25	C	0.281046	0.263627	0.308041
26	C	0.261642	0.281825	0.309678
27	C	0.229563	0.267906	0.001085
28	C	0.217422	0.235347	0.024277
29	C	0.236828	0.217152	0.022643
30	C	0.268906	0.231071	0.331236
31	H	0.194287	0.224548	0.042431
32	H	0.271106	0.305389	0.292655
33	H	0.304185	0.274431	0.289891
34	H	0.227365	0.193589	0.039669
35	C	0.209413	0.287494	0.002357
36	H	0.227482	0.314391	0.015132
37	H	0.186701	0.274693	0.025322
38	C	0.289057	0.211482	0.329963
39	H	0.311765	0.224281	0.306995
40	H	0.270987	0.184584	0.317194
41	C	0.235317	0.017242	0.3078
42	C	0.217018	0.479639	0.309449
43	C	0.230731	0.461404	0.001092
44	C	0.263191	0.481753	0.024506
45	C	0.281487	0.019355	0.022861
46	C	0.267773	0.037588	0.331218
47	H	0.273843	0.469361	0.042834
48	H	0.193529	0.465591	0.29226
49	H	0.224661	0.029632	0.289479
50	H	0.304974	0.033402	0.040053
51	C	0.211039	0.421664	0.002368
52	H	0.184094	0.412907	0.014906
53	H	0.223674	0.411701	0.025521
54	C	0.287463	0.077329	0.329946
55	H	0.274829	0.087292	0.306793
56	H	0.31441	0.086091	0.317414
57	C	0.481595	0.21763	0.308159
58	C	0.019195	0.237066	0.309797
59	C	0.037331	0.269206	0.001091
60	C	0.016888	0.281373	0.024169
61	C	0.479289	0.261936	0.022535
62	C	0.461153	0.229797	0.331241
63	H	0.029207	0.304554	0.042242
64	H	0.033313	0.22758	0.292857
65	H	0.469276	0.194447	0.290093
66	H	0.46517	0.271421	0.039477
67	C	0.077069	0.289385	0.00237
68	H	0.085918	0.271365	0.015257
69	H	0.086961	0.312152	0.025247
70	C	0.421412	0.209613	0.329968
71	H	0.411521	0.186847	0.307093
72	H	0.412561	0.227632	0.31708
73	C	0.180524	0.311146	0.289215
74	N	0.144421	0.296868	0.289253
75	C	0.129608	0.318177	0.289217
76	N	0.151432	0.354282	0.289307
77	C	0.187556	0.369097	0.28928
78	N	0.201833	0.34727	0.289301
79	N	0.092046	0.30232	0.290513
80	H	0.084885	0.320571	0.280142
81	N	0.209279	0.406663	0.290598
82	H	0.234759	0.413801	0.280552
83	N	0.196379	0.289439	0.290525
84	H	0.178098	0.264001	0.280266
85	C	0.317954	0.187837	0.376432
86	N	0.354061	0.202123	0.376412
87	C	0.368877	0.180818	0.376459
88	N	0.347059	0.144712	0.376359
89	C	0.310934	0.129891	0.376372
90	N	0.296652	0.151714	0.376346
91	N	0.406439	0.196681	0.37516
92	H	0.413605	0.178434	0.385533
93	N	0.289216	0.092327	0.37505
94	H	0.263735	0.085184	0.385094
95	N	0.302097	0.209543	0.375127
96	H	0.320377	0.234982	0.38538
97	C	0.281046	0.263627	0.641374
98	C	0.261642	0.281825	0.643013
99	C	0.229563	0.267906	0.334418
100	C	0.217422	0.235347	0.357608
101	C	0.236828	0.217152	0.355976
102	C	0.268906	0.231071	0.664568
103	H	0.194287	0.224548	0.375763
104	H	0.271106	0.305389	0.625987
105	H	0.304185	0.274431	0.623223
106	H	0.227365	0.193589	0.373003
107	C	0.209413	0.287494	0.33569
108	H	0.227482	0.314391	0.348464
109	H	0.186701	0.274693	0.358654
110	C	0.289057	0.211482	0.663295
111	H	0.311765	0.224281	0.640329
112	H	0.270987	0.184584	0.650525
113	C	0.235317	0.017242	0.641131
114	C	0.217018	0.479639	0.642783
115	C	0.230731	0.461404	0.334425
116	C	0.263191	0.481753	0.357838
117	C	0.281487	0.019355	0.356193
118	C	0.267773	0.037588	0.664551
119	H	0.273843	0.469361	0.376166
120	H	0.193529	0.465591	0.625594
121	H	0.224661	0.029632	0.622813
122	H	0.304974	0.033402	0.373385
123	C	0.211039	0.421664	0.3357
124	H	0.184094	0.412907	0.348238
125	H	0.223674	0.411701	0.358854
126	C	0.287463	0.077329	0.663279
127	H	0.274829	0.087292	0.640126
128	H	0.31441	0.086091	0.650748
129	C	0.481595	0.21763	0.641491
130	C	0.019195	0.237066	0.643129
131	C	0.037331	0.269206	0.334425
132	C	0.016888	0.281373	0.357502
133	C	0.479289	0.261936	0.355867
134	C	0.461153	0.229797	0.664574
135	H	0.029207	0.304554	0.375573
136	H	0.033313	0.22758	0.62619
137	H	0.469276	0.194447	0.623426
138	H	0.46517	0.271421	0.372809
139	C	0.077069	0.289385	0.335704
140	H	0.085918	0.271365	0.348591
141	H	0.086961	0.312152	0.35858
142	C	0.421412	0.209613	0.663302
143	H	0.411521	0.186847	0.640425
144	H	0.412561	0.227632	0.650412
145	C	0.180524	0.311146	0.622547
146	N	0.144421	0.296868	0.622587
147	C	0.129608	0.318177	0.62255
148	N	0.151432	0.354282	0.62264
149	C	0.187556	0.369097	0.622613
150	N	0.201833	0.34727	0.622633
151	N	0.092046	0.30232	0.623845
152	H	0.084885	0.320571	0.613476
153	N	0.209279	0.406663	0.623932
154	H	0.234759	0.413801	0.613885
155	N	0.196379	0.289439	0.623859
156	H	0.178098	0.264001	0.613599
157	C	0.317954	0.187837	0.709765
158	N	0.354061	0.202123	0.709745
159	C	0.368877	0.180818	0.709792
160	N	0.347059	0.144712	0.709692
161	C	0.310934	0.129891	0.709705
162	N	0.296652	0.151714	0.709679
163	N	0.406439	0.196681	0.708493
164	H	0.413605	0.178434	0.718866
165	N	0.289216	0.092327	0.708383
166	H	0.263735	0.085184	0.718426
167	N	0.302097	0.209543	0.70846
168	H	0.320377	0.234982	0.718713
169	C	0.281046	0.263627	0.974707
170	C	0.261642	0.281825	0.976345
171	C	0.229563	0.267906	0.667751
172	C	0.217422	0.235347	0.690941
173	C	0.236828	0.217152	0.689309
174	C	0.268906	0.231071	0.9979
175	H	0.194287	0.224548	0.709096
176	H	0.271106	0.305389	0.959319
177	H	0.304185	0.274431	0.956559
178	H	0.227365	0.193589	0.706335
179	C	0.209413	0.287494	0.669023
180	H	0.227482	0.314391	0.681797
181	H	0.186701	0.274693	0.691986
182	C	0.289057	0.211482	0.996628
183	H	0.311765	0.224281	0.973661
184	H	0.270987	0.184584	0.983858
185	C	0.235317	0.017242	0.974467
186	C	0.217018	0.479639	0.976116
187	C	0.230731	0.461404	0.667758
188	C	0.263191	0.481753	0.691171
189	C	0.281487	0.019355	0.689526
190	C	0.267773	0.037588	0.997884
191	H	0.273843	0.469361	0.709499
192	H	0.193529	0.465591	0.958926
193	H	0.224661	0.029632	0.956146
194	H	0.304974	0.033402	0.706718
195	C	0.211039	0.421664	0.669033
196	H	0.184094	0.412907	0.68157
197	H	0.223674	0.411701	0.692186
198	C	0.287463	0.077329	0.996611
199	H	0.274829	0.087292	0.973458
200	H	0.31441	0.086091	0.984081
201	C	0.481595	0.21763	0.974824
202	C	0.019195	0.237066	0.976462
203	C	0.037331	0.269206	0.667758
204	C	0.016888	0.281373	0.690834
205	C	0.479289	0.261936	0.689199
206	C	0.461153	0.229797	0.997907
207	H	0.029207	0.304554	0.708906
208	H	0.033313	0.22758	0.959522
209	H	0.469276	0.194447	0.956758
210	H	0.46517	0.271421	0.706142
211	C	0.077069	0.289385	0.669036
212	H	0.085918	0.271365	0.681923
213	H	0.086961	0.312152	0.691913
214	C	0.421412	0.209613	0.996635
215	H	0.411521	0.186847	0.973758
216	H	0.412561	0.227632	0.983745
217	C	0.180525	0.811146	0.955879
218	N	0.144419	0.796866	0.955919
219	C	0.129608	0.818177	0.955883
220	N	0.151432	0.854282	0.955973
221	C	0.187555	0.869098	0.955946
222	N	0.201833	0.84727	0.955966
223	N	0.092047	0.802321	0.957178
224	H	0.084885	0.820571	0.946809
225	N	0.209277	0.906661	0.957265
226	H	0.234758	0.913799	0.947218
227	N	0.196379	0.789439	0.957191
228	H	0.178098	0.764	0.946932
229	C	0.317955	0.687838	0.043101
230	N	0.35406	0.702122	0.04308
231	C	0.368878	0.680818	0.043127
232	N	0.347058	0.644711	0.043025
233	C	0.310933	0.62989	0.043041
234	N	0.296652	0.651714	0.043014
235	N	0.406439	0.69668	0.041827
236	H	0.413607	0.678435	0.052202
237	N	0.289217	0.592326	0.041718
238	H	0.263735	0.585183	0.051762
239	N	0.302097	0.709543	0.041794
240	H	0.320377	0.734982	0.052048
241	C	0.281045	0.763626	0.308041
242	C	0.261641	0.781823	0.309678
243	C	0.229562	0.767903	0.001085
244	C	0.217421	0.735346	0.024277
245	C	0.236828	0.717151	0.022643
246	C	0.268906	0.731071	0.331236
247	H	0.194287	0.724548	0.042431
248	H	0.271106	0.805389	0.292655
249	H	0.304184	0.774428	0.289891
250	H	0.227365	0.693587	0.039669
251	C	0.209413	0.787494	0.002357
252	H	0.227482	0.814391	0.015132
253	H	0.186702	0.774693	0.025322
254	C	0.289057	0.711482	0.329963
255	H	0.311765	0.724281	0.306995
256	H	0.270987	0.684583	0.317194
257	C	0.235317	0.517242	0.3078
258	C	0.217017	0.979637	0.309449
259	C	0.230731	0.961405	0.001092
260	C	0.26319	0.98175	0.024506
261	C	0.281487	0.519353	0.022861
262	C	0.267774	0.537588	0.331218
263	H	0.273843	0.969361	0.042834
264	H	0.193529	0.965592	0.29226
265	H	0.224661	0.529632	0.289479
266	H	0.304975	0.533401	0.040053
267	C	0.211039	0.921664	0.002368
268	H	0.184094	0.912905	0.014906
269	H	0.223675	0.911701	0.025521
270	C	0.287463	0.577329	0.329946
271	H	0.274829	0.587291	0.306793
272	H	0.314411	0.58609	0.317414
273	C	0.481594	0.71763	0.308159
274	C	0.019195	0.737066	0.309797
275	C	0.03733	0.769204	0.001091
276	C	0.01689	0.781373	0.024169
277	C	0.479288	0.761935	0.022535
278	C	0.461153	0.729797	0.331241
279	H	0.029206	0.804552	0.042242
280	H	0.033313	0.727579	0.292857
281	H	0.469276	0.694446	0.290093
282	H	0.465171	0.771421	0.039477
283	C	0.07707	0.789386	0.00237
284	H	0.085918	0.771365	0.015257
285	H	0.08696	0.81215	0.025247
286	C	0.421413	0.709612	0.329968
287	H	0.411521	0.686846	0.307093
288	H	0.412561	0.72763	0.31708
289	C	0.180525	0.811146	0.289215
290	N	0.144419	0.796866	0.289253
291	C	0.129608	0.818177	0.289217
292	N	0.151432	0.854282	0.289307
293	C	0.187555	0.869098	0.28928
294	N	0.201833	0.84727	0.289301
295	N	0.092047	0.802321	0.290513
296	H	0.084885	0.820571	0.280142
297	N	0.209277	0.906661	0.290598
298	H	0.234758	0.913799	0.280552
299	N	0.196379	0.789439	0.290525
300	H	0.178098	0.764	0.280266
301	C	0.317955	0.687838	0.376432
302	N	0.35406	0.702122	0.376412
303	C	0.368878	0.680818	0.376459
304	N	0.347058	0.644711	0.376359
305	C	0.310933	0.62989	0.376372
306	N	0.296652	0.651714	0.376346
307	N	0.406439	0.69668	0.37516
308	H	0.413607	0.678435	0.385533
309	N	0.289217	0.592326	0.37505
310	H	0.263735	0.585183	0.385094
311	N	0.302097	0.709543	0.375127
312	H	0.320377	0.734982	0.38538
313	C	0.281045	0.763626	0.641374
314	C	0.261641	0.781823	0.643013
315	C	0.229562	0.767903	0.334418
316	C	0.217421	0.735346	0.357608
317	C	0.236828	0.717151	0.355976
318	C	0.268906	0.731071	0.664568
319	H	0.194287	0.724548	0.375763
320	H	0.271106	0.805389	0.625987
321	H	0.304184	0.774428	0.623223
322	H	0.227365	0.693587	0.373003
323	C	0.209413	0.787494	0.33569
324	H	0.227482	0.814391	0.348464
325	H	0.186702	0.774693	0.358654
326	C	0.289057	0.711482	0.663295
327	H	0.311765	0.724281	0.640329
328	H	0.270987	0.684583	0.650525
329	C	0.235317	0.517242	0.641131
330	C	0.217017	0.979637	0.642783
331	C	0.230731	0.961405	0.334425
332	C	0.26319	0.98175	0.357838
333	C	0.281487	0.519353	0.356193
334	C	0.267774	0.537588	0.664551
335	H	0.273843	0.969361	0.376166
336	H	0.193529	0.965592	0.625594
337	H	0.224661	0.529632	0.622813
338	H	0.304975	0.533401	0.373385
339	C	0.211039	0.921664	0.3357
340	H	0.184094	0.912905	0.348238
341	H	0.223675	0.911701	0.358854
342	C	0.287463	0.577329	0.663279
343	H	0.274829	0.587291	0.640126
344	H	0.314411	0.58609	0.650748
345	C	0.481594	0.71763	0.641491
346	C	0.019195	0.737066	0.643129
347	C	0.03733	0.769204	0.334425
348	C	0.01689	0.781373	0.357502
349	C	0.479288	0.761935	0.355867
350	C	0.461153	0.729797	0.664574
351	H	0.029206	0.804552	0.375573
352	H	0.033313	0.727579	0.62619
353	H	0.469276	0.694446	0.623426
354	H	0.465171	0.771421	0.372809
355	C	0.07707	0.789386	0.335704
356	H	0.085918	0.771365	0.348591
357	H	0.08696	0.81215	0.35858
358	C	0.421413	0.709612	0.663302
359	H	0.411521	0.686846	0.640425
360	H	0.412561	0.72763	0.650412
361	C	0.180525	0.811146	0.622547
362	N	0.144419	0.796866	0.622587
363	C	0.129608	0.818177	0.62255
364	N	0.151432	0.854282	0.62264
365	C	0.187555	0.869098	0.622613
366	N	0.201833	0.84727	0.622633
367	N	0.092047	0.802321	0.623845
368	H	0.084885	0.820571	0.613476
369	N	0.209277	0.906661	0.623932
370	H	0.234758	0.913799	0.613885
371	N	0.196379	0.789439	0.623859
372	H	0.178098	0.764	0.613599
373	C	0.317955	0.687838	0.709765
374	N	0.35406	0.702122	0.709745
375	C	0.368878	0.680818	0.709792
376	N	0.347058	0.644711	0.709692
377	C	0.310933	0.62989	0.709705
378	N	0.296652	0.651714	0.709679
379	N	0.406439	0.69668	0.708493
380	H	0.413607	0.678435	0.718866
381	N	0.289217	0.592326	0.708383
382	H	0.263735	0.585183	0.718426
383	N	0.302097	0.709543	0.70846
384	H	0.320377	0.734982	0.718713
385	C	0.281045	0.763626	0.974707
386	C	0.261641	0.781823	0.976345
387	C	0.229562	0.767903	0.667751
388	C	0.217421	0.735346	0.690941
389	C	0.236828	0.717151	0.689309
390	C	0.268906	0.731071	0.9979
391	H	0.194287	0.724548	0.709096
392	H	0.271106	0.805389	0.959319
393	H	0.304184	0.774428	0.956559
394	H	0.227365	0.693587	0.706335
395	C	0.209413	0.787494	0.669023
396	H	0.227482	0.814391	0.681797
397	H	0.186702	0.774693	0.691986
398	C	0.289057	0.711482	0.996628
399	H	0.311765	0.724281	0.973661
400	H	0.270987	0.684583	0.983858
401	C	0.235317	0.517242	0.974467
402	C	0.217017	0.979637	0.976116
403	C	0.230731	0.961405	0.667758
404	C	0.26319	0.98175	0.691171
405	C	0.281487	0.519353	0.689526
406	C	0.267774	0.537588	0.997884
407	H	0.273843	0.969361	0.709499
408	H	0.193529	0.965592	0.958926
409	H	0.224661	0.529632	0.956146
410	H	0.304975	0.533401	0.706718
411	C	0.211039	0.921664	0.669033
412	H	0.184094	0.912905	0.68157
413	H	0.223675	0.911701	0.692186
414	C	0.287463	0.577329	0.996611
415	H	0.274829	0.587291	0.973458
416	H	0.314411	0.58609	0.984081
417	C	0.481594	0.71763	0.974824
418	C	0.019195	0.737066	0.976462
419	C	0.03733	0.769204	0.667758
420	C	0.01689	0.781373	0.690834
421	C	0.479288	0.761935	0.689199
422	C	0.461153	0.729797	0.997907
423	H	0.029206	0.804552	0.708906
424	H	0.033313	0.727579	0.959522
425	H	0.469276	0.694446	0.956758
426	H	0.465171	0.771421	0.706142
427	C	0.07707	0.789386	0.669036
428	H	0.085918	0.771365	0.681923
429	H	0.08696	0.81215	0.691913
430	C	0.421413	0.709612	0.996635
431	H	0.411521	0.686846	0.973758
432	H	0.412561	0.72763	0.983745
433	C	0.680523	0.311146	0.955879
434	N	0.644421	0.296868	0.955919
435	C	0.629606	0.318177	0.955883
436	N	0.651431	0.354282	0.955973
437	C	0.687556	0.369097	0.955946
438	N	0.701833	0.34727	0.955966
439	N	0.592046	0.30232	0.957178
440	H	0.584884	0.320571	0.946809
441	N	0.709279	0.406663	0.957265
442	H	0.734758	0.413801	0.947218
443	N	0.696378	0.289439	0.957191
444	H	0.678099	0.264001	0.946932
445	C	0.817955	0.187837	0.043101
446	N	0.854061	0.202123	0.04308
447	C	0.868877	0.180818	0.043127
448	N	0.847057	0.144712	0.043025
449	C	0.810934	0.129891	0.043041
450	N	0.796652	0.151714	0.043014
451	N	0.906439	0.196681	0.041827
452	H	0.913605	0.178434	0.052202
453	N	0.789216	0.092327	0.041718
454	H	0.763734	0.085184	0.051762
455	N	0.802097	0.209543	0.041794
456	H	0.820377	0.234982	0.052048
457	C	0.781046	0.263627	0.308041
458	C	0.761641	0.281825	0.309678
459	C	0.729562	0.267906	0.001085
460	C	0.717421	0.235347	0.024277
461	C	0.736827	0.217152	0.022643
462	C	0.768906	0.231071	0.331236
463	H	0.694285	0.224548	0.042431
464	H	0.771106	0.305389	0.292655
465	H	0.804186	0.274431	0.289891
466	H	0.727365	0.193589	0.039669
467	C	0.709413	0.287494	0.002357
468	H	0.727482	0.314391	0.015132
469	H	0.686702	0.274693	0.025322
470	C	0.789056	0.211482	0.329963
471	H	0.811764	0.224281	0.306995
472	H	0.770988	0.184584	0.317194
473	C	0.735317	0.017242	0.3078
474	C	0.717017	0.479639	0.309449
475	C	0.73073	0.461404	0.001092
476	C	0.76319	0.481753	0.024506
477	C	0.781487	0.019355	0.022861
478	C	0.767773	0.037588	0.331218
479	H	0.773842	0.469361	0.042834
480	H	0.693527	0.465591	0.29226
481	H	0.724662	0.029632	0.289479
482	H	0.804974	0.033402	0.040053
483	C	0.711038	0.421664	0.002368
484	H	0.684094	0.412907	0.014906
485	H	0.723674	0.411701	0.025521
486	C	0.787463	0.077329	0.329946
487	H	0.77483	0.087292	0.306793
488	H	0.81441	0.086091	0.317414
489	C	0.981595	0.21763	0.308159
490	C	0.519194	0.237066	0.309797
491	C	0.53733	0.269206	0.001091
492	C	0.516888	0.281373	0.024169
493	C	0.979287	0.261936	0.022535
494	C	0.961153	0.229797	0.331241
495	H	0.529206	0.304554	0.042242
496	H	0.533312	0.22758	0.292857
497	H	0.969276	0.194447	0.290093
498	H	0.96517	0.271421	0.039477
499	C	0.577069	0.289385	0.00237
500	H	0.585917	0.271365	0.015257
501	H	0.58696	0.312152	0.025247
502	C	0.921412	0.209613	0.329968
503	H	0.911521	0.186847	0.307093
504	H	0.912561	0.227632	0.31708
505	C	0.680523	0.311146	0.289215
506	N	0.644421	0.296868	0.289253
507	C	0.629606	0.318177	0.289217
508	N	0.651431	0.354282	0.289307
509	C	0.687556	0.369097	0.28928
510	N	0.701833	0.34727	0.289301
511	N	0.592046	0.30232	0.290513
512	H	0.584884	0.320571	0.280142
513	N	0.709279	0.406663	0.290598
514	H	0.734758	0.413801	0.280552
515	N	0.696378	0.289439	0.290525
516	H	0.678099	0.264001	0.280266
517	C	0.817955	0.187837	0.376432
518	N	0.854061	0.202123	0.376412
519	C	0.868877	0.180818	0.376459
520	N	0.847057	0.144712	0.376359
521	C	0.810934	0.129891	0.376372
522	N	0.796652	0.151714	0.376346
523	N	0.906439	0.196681	0.37516
524	H	0.913605	0.178434	0.385533
525	N	0.789216	0.092327	0.37505
526	H	0.763734	0.085184	0.385094
527	N	0.802097	0.209543	0.375127
528	H	0.820377	0.234982	0.38538
529	C	0.781046	0.263627	0.641374
530	C	0.761641	0.281825	0.643013
531	C	0.729562	0.267906	0.334418
532	C	0.717421	0.235347	0.357608
533	C	0.736827	0.217152	0.355976
534	C	0.768906	0.231071	0.664568
535	H	0.694285	0.224548	0.375763
536	H	0.771106	0.305389	0.625987
537	H	0.804186	0.274431	0.623223
538	H	0.727365	0.193589	0.373003
539	C	0.709413	0.287494	0.33569
540	H	0.727482	0.314391	0.348464
541	H	0.686702	0.274693	0.358654
542	C	0.789056	0.211482	0.663295
543	H	0.811764	0.224281	0.640329
544	H	0.770988	0.184584	0.650525
545	C	0.735317	0.017242	0.641131
546	C	0.717017	0.479639	0.642783
547	C	0.73073	0.461404	0.334425
548	C	0.76319	0.481753	0.357838
549	C	0.781487	0.019355	0.356193
550	C	0.767773	0.037588	0.664551
551	H	0.773842	0.469361	0.376166
552	H	0.693527	0.465591	0.625594
553	H	0.724662	0.029632	0.622813
554	H	0.804974	0.033402	0.373385
555	C	0.711038	0.421664	0.3357
556	H	0.684094	0.412907	0.348238
557	H	0.723674	0.411701	0.358854
558	C	0.787463	0.077329	0.663279
559	H	0.77483	0.087292	0.640126
560	H	0.81441	0.086091	0.650748
561	C	0.981595	0.21763	0.641491
562	C	0.519194	0.237066	0.643129
563	C	0.53733	0.269206	0.334425
564	C	0.516888	0.281373	0.357502
565	C	0.979287	0.261936	0.355867
566	C	0.961153	0.229797	0.664574
567	H	0.529206	0.304554	0.375573
568	H	0.533312	0.22758	0.62619
569	H	0.969276	0.194447	0.623426
570	H	0.96517	0.271421	0.372809
571	C	0.577069	0.289385	0.335704
572	H	0.585917	0.271365	0.348591
573	H	0.58696	0.312152	0.35858
574	C	0.921412	0.209613	0.663302
575	H	0.911521	0.186847	0.640425
576	H	0.912561	0.227632	0.650412
577	C	0.680523	0.311146	0.622547
578	N	0.644421	0.296868	0.622587
579	C	0.629606	0.318177	0.62255
580	N	0.651431	0.354282	0.62264
581	C	0.687556	0.369097	0.622613
582	N	0.701833	0.34727	0.622633
583	N	0.592046	0.30232	0.623845
584	H	0.584884	0.320571	0.613476
585	N	0.709279	0.406663	0.623932
586	H	0.734758	0.413801	0.613885
587	N	0.696378	0.289439	0.623859
588	H	0.678099	0.264001	0.613599
589	C	0.817955	0.187837	0.709765
590	N	0.854061	0.202123	0.709745
591	C	0.868877	0.180818	0.709792
592	N	0.847057	0.144712	0.709692
593	C	0.810934	0.129891	0.709705
594	N	0.796652	0.151714	0.709679
595	N	0.906439	0.196681	0.708493
596	H	0.913605	0.178434	0.718866
597	N	0.789216	0.092327	0.708383
598	H	0.763734	0.085184	0.718426
599	N	0.802097	0.209543	0.70846
600	H	0.820377	0.234982	0.718713
601	C	0.781046	0.263627	0.974707
602	C	0.761641	0.281825	0.976345
603	C	0.729562	0.267906	0.667751
604	C	0.717421	0.235347	0.690941
605	C	0.736827	0.217152	0.689309
606	C	0.768906	0.231071	0.9979
607	H	0.694285	0.224548	0.709096
608	H	0.771106	0.305389	0.959319
609	H	0.804186	0.274431	0.956559
610	H	0.727365	0.193589	0.706335
611	C	0.709413	0.287494	0.669023
612	H	0.727482	0.314391	0.681797
613	H	0.686702	0.274693	0.691986
614	C	0.789056	0.211482	0.996628
615	H	0.811764	0.224281	0.973661
616	H	0.770988	0.184584	0.983858
617	C	0.735317	0.017242	0.974467
618	C	0.717017	0.479639	0.976116
619	C	0.73073	0.461404	0.667758
620	C	0.76319	0.481753	0.691171
621	C	0.781487	0.019355	0.689526
622	C	0.767773	0.037588	0.997884
623	H	0.773842	0.469361	0.709499
624	H	0.693527	0.465591	0.958926
625	H	0.724662	0.029632	0.956146
626	H	0.804974	0.033402	0.706718
627	C	0.711038	0.421664	0.669033
628	H	0.684094	0.412907	0.68157
629	H	0.723674	0.411701	0.692186
630	C	0.787463	0.077329	0.996611
631	H	0.77483	0.087292	0.973458
632	H	0.81441	0.086091	0.984081
633	C	0.981595	0.21763	0.974824
634	C	0.519194	0.237066	0.976462
635	C	0.53733	0.269206	0.667758
636	C	0.516888	0.281373	0.690834
637	C	0.979287	0.261936	0.689199
638	C	0.961153	0.229797	0.997907
639	H	0.529206	0.304554	0.708906
640	H	0.533312	0.22758	0.959522
641	H	0.969276	0.194447	0.956758
642	H	0.96517	0.271421	0.706142
643	C	0.577069	0.289385	0.669036
644	H	0.585917	0.271365	0.681923
645	H	0.58696	0.312152	0.691913
646	C	0.921412	0.209613	0.996635
647	H	0.911521	0.186847	0.973758
648	H	0.912561	0.227632	0.983745
649	C	0.680524	0.811146	0.955879
650	N	0.644419	0.796866	0.955919
651	C	0.629608	0.818177	0.955883
652	N	0.651432	0.854282	0.955973
653	C	0.687555	0.869098	0.955946
654	N	0.701832	0.84727	0.955966
655	N	0.592046	0.802321	0.957178
656	H	0.584885	0.820571	0.946809
657	N	0.709277	0.906661	0.957265
658	H	0.734758	0.913799	0.947218
659	N	0.696379	0.789439	0.957191
660	H	0.678097	0.764	0.946932
661	C	0.817954	0.687838	0.043101
662	N	0.854059	0.702122	0.04308
663	C	0.868879	0.680818	0.043127
664	N	0.847057	0.644711	0.043025
665	C	0.810932	0.62989	0.043041
666	N	0.796651	0.651714	0.043014
667	N	0.906439	0.69668	0.041827
668	H	0.913607	0.678435	0.052202
669	N	0.789217	0.592326	0.041718
670	H	0.763735	0.585183	0.051762
671	N	0.802096	0.709543	0.041794
672	H	0.820376	0.734982	0.052048
673	C	0.781044	0.763626	0.308041
674	C	0.761641	0.781823	0.309678
675	C	0.729562	0.767903	0.001085
676	C	0.717421	0.735346	0.024277
677	C	0.736828	0.717151	0.022643
678	C	0.768907	0.731071	0.331236
679	H	0.694287	0.724548	0.042431
680	H	0.771105	0.805389	0.292655
681	H	0.804183	0.774428	0.289891
682	H	0.727365	0.693587	0.039669
683	C	0.709412	0.787494	0.002357
684	H	0.727483	0.814391	0.015132
685	H	0.686701	0.774693	0.025322
686	C	0.789058	0.711482	0.329963
687	H	0.811765	0.724281	0.306995
688	H	0.770986	0.684583	0.317194
689	C	0.735316	0.517242	0.3078
690	C	0.717017	0.979637	0.309449
691	C	0.730731	0.961405	0.001092
692	C	0.76319	0.98175	0.024506
693	C	0.781487	0.519353	0.022861
694	C	0.767775	0.537588	0.331218
695	H	0.773843	0.969361	0.042834
696	H	0.693529	0.965592	0.29226
697	H	0.72466	0.529632	0.289479
698	H	0.804975	0.533401	0.040053
699	C	0.711039	0.921664	0.002368
700	H	0.684093	0.912905	0.014906
701	H	0.723673	0.911701	0.025521
702	C	0.787462	0.577329	0.329946
703	H	0.774828	0.587291	0.306793
704	H	0.814411	0.58609	0.317414
705	C	0.981594	0.71763	0.308159
706	C	0.519195	0.737066	0.309797
707	C	0.537329	0.769204	0.001091
708	C	0.516888	0.781373	0.024169
709	C	0.979287	0.761935	0.022535
710	C	0.961152	0.729797	0.331241
711	H	0.529206	0.804552	0.042242
712	H	0.533312	0.727579	0.292857
713	H	0.969274	0.694446	0.290093
714	H	0.965171	0.771421	0.039477
715	C	0.577069	0.789386	0.00237
716	H	0.585918	0.771365	0.015257
717	H	0.58696	0.81215	0.025247
718	C	0.921413	0.709612	0.329968
719	H	0.911522	0.686846	0.307093
720	H	0.912561	0.72763	0.31708
721	C	0.680524	0.811146	0.289215
722	N	0.644419	0.796866	0.289253
723	C	0.629608	0.818177	0.289217
724	N	0.651432	0.854282	0.289307
725	C	0.687555	0.869098	0.28928
726	N	0.701832	0.84727	0.289301
727	N	0.592046	0.802321	0.290513
728	H	0.584885	0.820571	0.280142
729	N	0.709277	0.906661	0.290598
730	H	0.734758	0.913799	0.280552
731	N	0.696379	0.789439	0.290525
732	H	0.678097	0.764	0.280266
733	C	0.817954	0.687838	0.376432
734	N	0.854059	0.702122	0.376412
735	C	0.868879	0.680818	0.376459
736	N	0.847057	0.644711	0.376359
737	C	0.810932	0.62989	0.376372
738	N	0.796651	0.651714	0.376346
739	N	0.906439	0.69668	0.37516
740	H	0.913607	0.678435	0.385533
741	N	0.789217	0.592326	0.37505
742	H	0.763735	0.585183	0.385094
743	N	0.802096	0.709543	0.375127
744	H	0.820376	0.734982	0.38538
745	C	0.781044	0.763626	0.641374
746	C	0.761641	0.781823	0.643013
747	C	0.729562	0.767903	0.334418
748	C	0.717421	0.735346	0.357608
749	C	0.736828	0.717151	0.355976
750	C	0.768907	0.731071	0.664568
751	H	0.694287	0.724548	0.375763
752	H	0.771105	0.805389	0.625987
753	H	0.804183	0.774428	0.623223
754	H	0.727365	0.693587	0.373003
755	C	0.709412	0.787494	0.33569
756	H	0.727483	0.814391	0.348464
757	H	0.686701	0.774693	0.358654
758	C	0.789058	0.711482	0.663295
759	H	0.811765	0.724281	0.640329
760	H	0.770986	0.684583	0.650525
761	C	0.735316	0.517242	0.641131
762	C	0.717017	0.979637	0.642783
763	C	0.730731	0.961405	0.334425
764	C	0.76319	0.98175	0.357838
765	C	0.781487	0.519353	0.356193
766	C	0.767775	0.537588	0.664551
767	H	0.773843	0.969361	0.376166
768	H	0.693529	0.965592	0.625594
769	H	0.72466	0.529632	0.622813
770	H	0.804975	0.533401	0.373385
771	C	0.711039	0.921664	0.3357
772	H	0.684093	0.912905	0.348238
773	H	0.723673	0.911701	0.358854
774	C	0.787462	0.577329	0.663279
775	H	0.774828	0.587291	0.640126
776	H	0.814411	0.58609	0.650748
777	C	0.981594	0.71763	0.641491
778	C	0.519195	0.737066	0.643129
779	C	0.537329	0.769204	0.334425
780	C	0.516888	0.781373	0.357502
781	C	0.979287	0.761935	0.355867
782	C	0.961152	0.729797	0.664574
783	H	0.529206	0.804552	0.375573
784	H	0.533312	0.727579	0.62619
785	H	0.969274	0.694446	0.623426
786	H	0.965171	0.771421	0.372809
787	C	0.577069	0.789386	0.335704
788	H	0.585918	0.771365	0.348591
789	H	0.58696	0.81215	0.35858
790	C	0.921413	0.709612	0.663302
791	H	0.911522	0.686846	0.640425
792	H	0.912561	0.72763	0.650412
793	C	0.680524	0.811146	0.622547
794	N	0.644419	0.796866	0.622587
795	C	0.629608	0.818177	0.62255
796	N	0.651432	0.854282	0.62264
797	C	0.687555	0.869098	0.622613
798	N	0.701832	0.84727	0.622633
799	N	0.592046	0.802321	0.623845
800	H	0.584885	0.820571	0.613476
801	N	0.709277	0.906661	0.623932
802	H	0.734758	0.913799	0.613885
803	N	0.696379	0.789439	0.623859
804	H	0.678097	0.764	0.613599
805	C	0.817954	0.687838	0.709765
806	N	0.854059	0.702122	0.709745
807	C	0.868879	0.680818	0.709792
808	N	0.847057	0.644711	0.709692
809	C	0.810932	0.62989	0.709705
810	N	0.796651	0.651714	0.709679
811	N	0.906439	0.69668	0.708493
812	H	0.913607	0.678435	0.718866
813	N	0.789217	0.592326	0.708383
814	H	0.763735	0.585183	0.718426
815	N	0.802096	0.709543	0.70846
816	H	0.820376	0.734982	0.718713
817	C	0.781044	0.763626	0.974707
818	C	0.761641	0.781823	0.976345
819	C	0.729562	0.767903	0.667751
820	C	0.717421	0.735346	0.690941
821	C	0.736828	0.717151	0.689309
822	C	0.768907	0.731071	0.9979
823	H	0.694287	0.724548	0.709096
824	H	0.771105	0.805389	0.959319
825	H	0.804183	0.774428	0.956559
826	H	0.727365	0.693587	0.706335
827	C	0.709412	0.787494	0.669023
828	H	0.727483	0.814391	0.681797
829	H	0.686701	0.774693	0.691986
830	C	0.789058	0.711482	0.996628
831	H	0.811765	0.724281	0.973661
832	H	0.770986	0.684583	0.983858
833	C	0.735316	0.517242	0.974467
834	C	0.717017	0.979637	0.976116
835	C	0.730731	0.961405	0.667758
836	C	0.76319	0.98175	0.691171
837	C	0.781487	0.519353	0.689526
838	C	0.767775	0.537588	0.997884
839	H	0.773843	0.969361	0.709499
840	H	0.693529	0.965592	0.958926
841	H	0.72466	0.529632	0.956146
842	H	0.804975	0.533401	0.706718
843	C	0.711039	0.921664	0.669033
844	H	0.684093	0.912905	0.68157
845	H	0.723673	0.911701	0.692186
846	C	0.787462	0.577329	0.996611
847	H	0.774828	0.587291	0.973458
848	H	0.814411	0.58609	0.984081
849	C	0.981594	0.71763	0.974824
850	C	0.519195	0.737066	0.976462
851	C	0.537329	0.769204	0.667758
852	C	0.516888	0.781373	0.690834
853	C	0.979287	0.761935	0.689199
854	C	0.961152	0.729797	0.997907
855	H	0.529206	0.804552	0.708906
856	H	0.533312	0.727579	0.959522
857	H	0.969274	0.694446	0.956758
858	H	0.965171	0.771421	0.706142
859	C	0.577069	0.789386	0.669036
860	H	0.585918	0.771365	0.681923
861	H	0.58696	0.81215	0.691913
862	C	0.921413	0.709612	0.996635
863	H	0.911522	0.686846	0.973758
864	H	0.912561	0.72763	0.983745
