data_C576H288N72O144_2018-02-15_10:39:04
#******************************************
#
# CIF file created by Zeo++
# Zeo++ is an open source package to
# analyze microporous materials
#
#*******************************************

_cell_length_a		44.5933   
_cell_length_b		44.5933   
_cell_length_c		29.7906   
_cell_angle_alpha		90   
_cell_angle_beta		90   
_cell_angle_gamma		120   

_symmetry_space_group_name_H-M		'P1'
_symmetry_Int_Tables_number		1
_symmetry_cell_setting		Monoclinic

loop_
_symmetry_equiv_pos_as_xyz
'+x,+y,+z'

loop_
_atom_site_label
_atom_site_type_symbol
_atom_site_fract_x
_atom_site_fract_y
_atom_site_fract_z
1	C	0.07853	0.309892	0.30915
2	C	0.042045	0.291655	0.309099
3	C	0.023243	0.262488	0.003706
4	C	0.04205	0.252125	0.031643
5	C	0.078535	0.270378	0.031591
6	H	0.02927	0.231054	0.052218
7	H	0.029262	0.299946	0.288529
8	C	0.07853	0.309892	0.642484
9	C	0.042045	0.291655	0.642433
10	C	0.023243	0.262488	0.337039
11	C	0.04205	0.252125	0.364977
12	C	0.078535	0.270378	0.364927
13	H	0.02927	0.231054	0.385554
14	H	0.029262	0.299946	0.621863
15	C	0.07853	0.309892	0.97582
16	C	0.042045	0.291655	0.975766
17	C	0.023243	0.262488	0.670375
18	C	0.04205	0.252125	0.69831
19	C	0.078535	0.270378	0.69826
20	H	0.02927	0.231054	0.718887
21	H	0.029262	0.299946	0.955196
22	C	0.078529	0.809893	0.30915
23	C	0.042045	0.791656	0.309099
24	C	0.023242	0.762486	0.003706
25	C	0.042049	0.752123	0.031643
26	C	0.078535	0.770379	0.031591
27	H	0.029269	0.731053	0.052218
28	H	0.029261	0.799945	0.288529
29	C	0.078529	0.809893	0.642484
30	C	0.042045	0.791656	0.642433
31	C	0.023242	0.762486	0.337039
32	C	0.042049	0.752123	0.364977
33	C	0.078535	0.770379	0.364927
34	H	0.029269	0.731053	0.385551
35	H	0.029261	0.799945	0.621863
36	C	0.078529	0.809893	0.97582
37	C	0.042045	0.791656	0.975766
38	C	0.023242	0.762486	0.670375
39	C	0.042049	0.752123	0.69831
40	C	0.078535	0.770379	0.69826
41	H	0.029269	0.731053	0.718887
42	H	0.029261	0.799945	0.955196
43	C	0.097617	0.299679	0.337039
44	H	0.091078	0.262304	0.052898
45	H	0.09107	0.330512	0.287844
46	C	0.097617	0.299679	0.670372
47	H	0.091078	0.262304	0.386232
48	H	0.09107	0.330512	0.621178
49	C	0.097617	0.299679	0.003704
50	H	0.091078	0.262304	0.719565
51	H	0.09107	0.330512	0.954511
52	C	0.097617	0.79968	0.337039
53	H	0.091079	0.762305	0.052898
54	H	0.09107	0.830512	0.287844
55	C	0.097617	0.79968	0.670372
56	H	0.091079	0.762305	0.386232
57	H	0.09107	0.830512	0.621178
58	C	0.097617	0.79968	0.003704
59	H	0.091079	0.762305	0.719565
60	H	0.09107	0.830512	0.954511
61	C	0.134821	0.318284	0.003704
62	C	0.153806	0.354971	0.003705
63	C	0.153813	0.300594	0.003704
64	H	0.140564	0.274091	0.003704
65	H	0.140552	0.368218	0.003705
66	C	0.134821	0.318284	0.337039
67	C	0.153806	0.354971	0.337039
68	C	0.153813	0.300594	0.337039
69	H	0.140564	0.274091	0.337039
70	H	0.140552	0.368218	0.337039
71	C	0.134821	0.318284	0.670372
72	C	0.153806	0.354971	0.670372
73	C	0.153813	0.300594	0.670372
74	H	0.140564	0.274091	0.670372
75	H	0.140552	0.368218	0.670372
76	C	0.13482	0.818285	0.003704
77	C	0.153806	0.854969	0.003705
78	C	0.153812	0.800592	0.003704
79	H	0.140563	0.774089	0.003704
80	H	0.140551	0.868219	0.003705
81	C	0.13482	0.818285	0.337039
82	C	0.153806	0.854969	0.337039
83	C	0.153812	0.800592	0.337039
84	H	0.140563	0.774089	0.337039
85	H	0.140551	0.868219	0.337039
86	C	0.13482	0.818285	0.670372
87	C	0.153806	0.854969	0.670372
88	C	0.153812	0.800592	0.670372
89	H	0.140563	0.774089	0.670372
90	H	0.140551	0.868219	0.670372
91	C	0.19049	0.373962	0.003705
92	C	0.20819	0.354976	0.003705
93	C	0.190496	0.318292	0.003705
94	H	0.234693	0.368231	0.003705
95	C	0.37541	0.188579	0.003713
96	C	0.35681	0.151962	0.003713
97	C	0.320195	0.133372	0.003714
98	C	0.302177	0.151972	0.003714
99	C	0.320205	0.188589	0.003714
100	C	0.356821	0.206606	0.003713
101	H	0.275636	0.138705	0.003714
102	H	0.370096	0.233147	0.003713
103	H	0.370077	0.138688	0.003713
104	C	0.209103	0.299695	0.337039
105	C	0.19889	0.270396	0.30915
106	C	0.217127	0.252147	0.309098
107	C	0.246295	0.262511	0.003706
108	C	0.256657	0.291681	0.031645
109	C	0.238403	0.309913	0.031593
110	H	0.277728	0.299972	0.052221
111	H	0.246477	0.33053	0.0529
112	C	0.264815	0.243996	0.00371
113	C	0.28309	0.24363	0.298087
114	C	0.30163	0.225478	0.298766
115	C	0.301811	0.206991	0.003713
116	C	0.28333	0.207181	0.041995
117	C	0.265177	0.225721	0.042668
118	H	0.314785	0.22545	0.2706
119	H	0.283346	0.194017	0.070157
120	H	0.178272	0.262317	0.287843
121	H	0.208838	0.231074	0.288527
122	N	0.246872	0.225699	0.081575
123	N	0.283114	0.261934	0.259177
124	O	0.270043	0.241966	0.226178
125	O	0.223529	0.19563	0.091816
126	O	0.266837	0.23877	0.114576
127	O	0.313182	0.285275	0.248937
128	C	0.209089	0.411166	0.337039
129	C	0.238389	0.430253	0.309151
130	C	0.256637	0.466737	0.3091
131	C	0.246269	0.485539	0.003707
132	C	0.2171	0.466732	0.031644
133	C	0.198869	0.430248	0.031592
134	H	0.20881	0.479514	0.052219
135	H	0.178251	0.417705	0.052898
136	C	0.264788	0.022576	0.00371
137	C	0.265154	0.041217	0.298086
138	C	0.283307	0.077909	0.298765
139	C	0.30179	0.096576	0.003713
140	C	0.3016	0.077906	0.041996
141	C	0.283059	0.041214	0.04267
142	H	0.283338	0.091093	0.270599
143	H	0.314763	0.091087	0.070159
144	H	0.246467	0.417712	0.287845
145	H	0.27771	0.479521	0.28853
146	N	0.28308	0.02293	0.081578
147	N	0.246854	0.022937	0.259176
148	O	0.266822	0.029834	0.226178
149	O	0.313147	0.529655	0.091822
150	O	0.270006	0.029824	0.114577
151	O	0.223512	0.529665	0.248932
152	C	0.486206	0.243968	0.003709
153	C	0.467566	0.225694	0.298086
154	C	0.430873	0.207154	0.298765
155	C	0.412207	0.206972	0.003713
156	C	0.430876	0.225451	0.041995
157	C	0.467568	0.243603	0.042669
158	H	0.417689	0.194	0.270598
159	H	0.417695	0.225433	0.070158
160	N	0.485852	0.261908	0.081577
161	N	0.485845	0.225673	0.259175
162	O	0.478948	0.238745	0.226177
163	O	0.979126	0.285249	0.09182
164	O	0.478958	0.24194	0.114576
165	O	0.979118	0.195604	0.248931
166	C	0.19049	0.373962	0.337039
167	C	0.20819	0.354976	0.337039
168	C	0.190496	0.318292	0.337039
169	H	0.234693	0.368231	0.337039
170	C	0.37541	0.188579	0.337045
171	C	0.35681	0.151962	0.337049
172	C	0.320195	0.133372	0.337049
173	C	0.302177	0.151972	0.337049
174	C	0.320205	0.188589	0.337049
175	C	0.356821	0.206606	0.337045
176	H	0.275636	0.138705	0.337049
177	H	0.370096	0.233147	0.337045
178	H	0.370077	0.138688	0.337045
179	C	0.209103	0.299695	0.670372
180	C	0.19889	0.270396	0.642484
181	C	0.217127	0.252147	0.642433
182	C	0.246295	0.262511	0.337039
183	C	0.256657	0.291681	0.36498
184	C	0.238403	0.309913	0.364927
185	H	0.277728	0.299972	0.385554
186	H	0.246477	0.33053	0.386235
187	C	0.264815	0.243996	0.337042
188	C	0.28309	0.24363	0.63142
189	C	0.30163	0.225478	0.632101
190	C	0.301811	0.206991	0.337045
191	C	0.28333	0.207181	0.375329
192	C	0.265177	0.225721	0.376001
193	H	0.314785	0.22545	0.603935
194	H	0.283346	0.194017	0.403492
195	H	0.178272	0.262317	0.621178
196	H	0.208838	0.231074	0.62186
197	N	0.246872	0.225699	0.414909
198	N	0.283114	0.261934	0.592512
199	O	0.270043	0.241966	0.559511
200	O	0.223529	0.19563	0.42515
201	O	0.266837	0.23877	0.447909
202	O	0.313182	0.285275	0.58227
203	C	0.209089	0.411166	0.670372
204	C	0.238389	0.430253	0.642487
205	C	0.256637	0.466737	0.642433
206	C	0.246269	0.485539	0.337042
207	C	0.2171	0.466732	0.364977
208	C	0.198869	0.430248	0.364927
209	H	0.20881	0.479514	0.385554
210	H	0.178251	0.417705	0.386232
211	C	0.264788	0.022576	0.337045
212	C	0.265154	0.041217	0.63142
213	C	0.283307	0.077909	0.632098
214	C	0.30179	0.096576	0.337049
215	C	0.3016	0.077906	0.375329
216	C	0.283059	0.041214	0.376004
217	H	0.283338	0.091093	0.603931
218	H	0.314763	0.091087	0.403492
219	H	0.246467	0.417712	0.621178
220	H	0.27771	0.479521	0.621863
221	N	0.28308	0.02293	0.414912
222	N	0.246854	0.022937	0.592508
223	O	0.266822	0.029834	0.559511
224	O	0.313147	0.529655	0.425157
225	O	0.270006	0.029824	0.447909
226	O	0.223512	0.529665	0.582267
227	C	0.486206	0.243968	0.337042
228	C	0.467566	0.225694	0.63142
229	C	0.430873	0.207154	0.632098
230	C	0.412207	0.206972	0.337045
231	C	0.430876	0.225451	0.375329
232	C	0.467568	0.243603	0.376004
233	H	0.417689	0.194	0.603931
234	H	0.417695	0.225433	0.403492
235	N	0.485852	0.261908	0.414909
236	N	0.485845	0.225673	0.592508
237	O	0.478948	0.238745	0.559511
238	O	0.979126	0.285249	0.425154
239	O	0.478958	0.24194	0.447909
240	O	0.979118	0.195604	0.582267
241	C	0.19049	0.373962	0.670372
242	C	0.20819	0.354976	0.670372
243	C	0.190496	0.318292	0.670372
244	H	0.234693	0.368231	0.670372
245	C	0.37541	0.188579	0.670382
246	C	0.35681	0.151962	0.670382
247	C	0.320195	0.133372	0.670382
248	C	0.302177	0.151972	0.670382
249	C	0.320205	0.188589	0.670382
250	C	0.356821	0.206606	0.670382
251	H	0.275636	0.138705	0.670382
252	H	0.370096	0.233147	0.670382
253	H	0.370077	0.138688	0.670382
254	C	0.209103	0.299695	0.003704
255	C	0.19889	0.270396	0.975816
256	C	0.217127	0.252147	0.975766
257	C	0.246295	0.262511	0.670375
258	C	0.256657	0.291681	0.698313
259	C	0.238403	0.309913	0.69826
260	H	0.277728	0.299972	0.71889
261	H	0.246477	0.33053	0.719568
262	C	0.264815	0.243996	0.670378
263	C	0.28309	0.24363	0.964756
264	C	0.30163	0.225478	0.965434
265	C	0.301811	0.206991	0.670382
266	C	0.28333	0.207181	0.708662
267	C	0.265177	0.225721	0.709337
268	H	0.314785	0.22545	0.937267
269	H	0.283346	0.194017	0.736825
270	H	0.178272	0.262317	0.954511
271	H	0.208838	0.231074	0.955196
272	N	0.246872	0.225699	0.748242
273	N	0.283114	0.261934	0.925844
274	O	0.270043	0.241966	0.892844
275	O	0.223529	0.19563	0.758483
276	O	0.266837	0.23877	0.781242
277	O	0.313182	0.285275	0.915603
278	C	0.209089	0.411166	0.003705
279	C	0.238389	0.430253	0.97582
280	C	0.256637	0.466737	0.975766
281	C	0.246269	0.485539	0.670375
282	C	0.2171	0.466732	0.698313
283	C	0.198869	0.430248	0.69826
284	H	0.20881	0.479514	0.718887
285	H	0.178251	0.417705	0.719565
286	C	0.264788	0.022576	0.670378
287	C	0.265154	0.041217	0.964753
288	C	0.283307	0.077909	0.965434
289	C	0.30179	0.096576	0.670382
290	C	0.3016	0.077906	0.708665
291	C	0.283059	0.041214	0.709337
292	H	0.283338	0.091093	0.937267
293	H	0.314763	0.091087	0.736825
294	H	0.246467	0.417712	0.954515
295	H	0.27771	0.479521	0.955196
296	N	0.28308	0.02293	0.748245
297	N	0.246854	0.022937	0.925844
298	O	0.266822	0.029834	0.892847
299	O	0.313147	0.529655	0.75849
300	O	0.270006	0.029824	0.781245
301	O	0.223512	0.529665	0.9156
302	C	0.486206	0.243968	0.670375
303	C	0.467566	0.225694	0.964753
304	C	0.430873	0.207154	0.965431
305	C	0.412207	0.206972	0.670382
306	C	0.430876	0.225451	0.708662
307	C	0.467568	0.243603	0.709337
308	H	0.417689	0.194	0.937267
309	H	0.417695	0.225433	0.736825
310	N	0.485852	0.261908	0.748245
311	N	0.485845	0.225673	0.925841
312	O	0.478948	0.238745	0.892844
313	O	0.979126	0.285249	0.758487
314	O	0.478958	0.24194	0.781242
315	O	0.979118	0.195604	0.9156
316	C	0.190489	0.87396	0.003705
317	C	0.20819	0.854977	0.003705
318	C	0.190496	0.818293	0.003705
319	H	0.234692	0.86823	0.003705
320	C	0.37541	0.688579	0.003713
321	C	0.356811	0.651963	0.003713
322	C	0.320193	0.633371	0.003714
323	C	0.302176	0.65197	0.003714
324	C	0.320203	0.688587	0.003713
325	C	0.356819	0.706604	0.003713
326	H	0.275635	0.638705	0.003714
327	H	0.370094	0.733146	0.003713
328	H	0.370077	0.638687	0.003713
329	C	0.209102	0.799693	0.337039
330	C	0.198889	0.770394	0.30915
331	C	0.217126	0.752147	0.309098
332	C	0.246295	0.762512	0.003706
333	C	0.256657	0.791682	0.031645
334	C	0.238402	0.809911	0.031593
335	H	0.277726	0.79997	0.052221
336	H	0.246477	0.830531	0.0529
337	C	0.264814	0.743995	0.00371
338	C	0.28309	0.74363	0.298087
339	C	0.30163	0.725478	0.298766
340	C	0.30181	0.70699	0.003713
341	C	0.28333	0.707182	0.041995
342	C	0.265178	0.725722	0.042668
343	H	0.314785	0.72545	0.2706
344	H	0.283346	0.694017	0.070157
345	H	0.178271	0.762315	0.287843
346	H	0.208838	0.731074	0.288527
347	N	0.246871	0.725699	0.081575
348	N	0.283112	0.761932	0.259177
349	O	0.270042	0.741965	0.226178
350	O	0.223529	0.69563	0.091816
351	O	0.266837	0.73877	0.114576
352	O	0.313182	0.785276	0.248937
353	C	0.209087	0.911165	0.337039
354	C	0.238386	0.930251	0.309151
355	C	0.256635	0.966736	0.3091
356	C	0.24627	0.98554	0.003707
357	C	0.217098	0.966731	0.031644
358	C	0.198869	0.930246	0.031592
359	H	0.208809	0.979512	0.052219
360	H	0.17825	0.917703	0.052898
361	C	0.264786	0.522575	0.00371
362	C	0.265154	0.541216	0.298086
363	C	0.283306	0.577908	0.298765
364	C	0.30179	0.596575	0.003713
365	C	0.301599	0.577906	0.041996
366	C	0.283059	0.541214	0.04267
367	H	0.283336	0.591094	0.270599
368	H	0.314762	0.591086	0.070159
369	H	0.246467	0.917713	0.287845
370	H	0.277709	0.97952	0.28853
371	N	0.283079	0.52293	0.081578
372	N	0.246853	0.522938	0.259176
373	O	0.266822	0.529833	0.226178
374	O	0.313149	0.029656	0.091822
375	O	0.270006	0.529823	0.114577
376	O	0.223512	0.029664	0.248932
377	C	0.486206	0.743967	0.003709
378	C	0.467564	0.725693	0.298086
379	C	0.430872	0.707153	0.298765
380	C	0.412206	0.706972	0.003713
381	C	0.430876	0.72545	0.041995
382	C	0.467568	0.743602	0.042669
383	H	0.417689	0.693999	0.270598
384	H	0.417695	0.725432	0.070158
385	N	0.485852	0.761906	0.081577
386	N	0.485845	0.725673	0.259175
387	O	0.478948	0.738744	0.226177
388	O	0.979127	0.78525	0.09182
389	O	0.478958	0.741939	0.114576
390	O	0.979118	0.695605	0.248931
391	C	0.190489	0.87396	0.337039
392	C	0.20819	0.854977	0.337039
393	C	0.190496	0.818293	0.337039
394	H	0.234692	0.86823	0.337039
395	C	0.37541	0.688579	0.337045
396	C	0.356811	0.651963	0.337049
397	C	0.320193	0.633371	0.337049
398	C	0.302176	0.65197	0.337049
399	C	0.320203	0.688587	0.337049
400	C	0.356819	0.706604	0.337045
401	H	0.275635	0.638705	0.337049
402	H	0.370094	0.733146	0.337045
403	H	0.370077	0.638687	0.337045
404	C	0.209102	0.799693	0.670372
405	C	0.198889	0.770394	0.642484
406	C	0.217126	0.752147	0.642433
407	C	0.246295	0.762512	0.337039
408	C	0.256657	0.791682	0.36498
409	C	0.238402	0.809911	0.364927
410	H	0.277726	0.79997	0.385554
411	H	0.246477	0.830531	0.386235
412	C	0.264814	0.743995	0.337042
413	C	0.28309	0.74363	0.63142
414	C	0.30163	0.725478	0.632101
415	C	0.30181	0.70699	0.337045
416	C	0.28333	0.707182	0.375329
417	C	0.265178	0.725722	0.376001
418	H	0.314785	0.72545	0.603935
419	H	0.283346	0.694017	0.403492
420	H	0.178271	0.762315	0.621178
421	H	0.208838	0.731074	0.62186
422	N	0.246871	0.725699	0.414909
423	N	0.283112	0.761932	0.592512
424	O	0.270042	0.741965	0.559511
425	O	0.223529	0.69563	0.42515
426	O	0.266837	0.73877	0.447909
427	O	0.313182	0.785276	0.58227
428	C	0.209087	0.911165	0.670372
429	C	0.238386	0.930251	0.642487
430	C	0.256635	0.966736	0.642433
431	C	0.24627	0.98554	0.337042
432	C	0.217098	0.966731	0.364977
433	C	0.198869	0.930246	0.364927
434	H	0.208809	0.979512	0.385554
435	H	0.17825	0.917703	0.386232
436	C	0.264786	0.522575	0.337045
437	C	0.265154	0.541216	0.63142
438	C	0.283306	0.577908	0.632098
439	C	0.30179	0.596575	0.337049
440	C	0.301599	0.577906	0.375329
441	C	0.283059	0.541214	0.376004
442	H	0.283336	0.591094	0.603931
443	H	0.314762	0.591086	0.403492
444	H	0.246467	0.917713	0.621178
445	H	0.277709	0.97952	0.621863
446	N	0.283079	0.52293	0.414912
447	N	0.246853	0.522938	0.592508
448	O	0.266822	0.529833	0.559511
449	O	0.313149	0.029656	0.425157
450	O	0.270006	0.529823	0.447909
451	O	0.223512	0.029664	0.582267
452	C	0.486206	0.743967	0.337042
453	C	0.467564	0.725693	0.63142
454	C	0.430872	0.707153	0.632098
455	C	0.412206	0.706972	0.337045
456	C	0.430876	0.72545	0.375329
457	C	0.467568	0.743602	0.376004
458	H	0.417689	0.693999	0.603931
459	H	0.417695	0.725432	0.403492
460	N	0.485852	0.761906	0.414909
461	N	0.485845	0.725673	0.592508
462	O	0.478948	0.738744	0.559511
463	O	0.979127	0.78525	0.425154
464	O	0.478958	0.741939	0.447909
465	O	0.979118	0.695605	0.582263
466	C	0.190489	0.87396	0.670372
467	C	0.20819	0.854977	0.670372
468	C	0.190496	0.818293	0.670372
469	H	0.234692	0.86823	0.670372
470	C	0.37541	0.688579	0.670382
471	C	0.356811	0.651963	0.670382
472	C	0.320193	0.633371	0.670382
473	C	0.302176	0.65197	0.670382
474	C	0.320203	0.688587	0.670382
475	C	0.356819	0.706604	0.670382
476	H	0.275635	0.638705	0.670382
477	H	0.370094	0.733146	0.670382
478	H	0.370077	0.638687	0.670382
479	C	0.209102	0.799693	0.003704
480	C	0.198889	0.770394	0.975816
481	C	0.217126	0.752147	0.975766
482	C	0.246295	0.762512	0.670375
483	C	0.256657	0.791682	0.698313
484	C	0.238402	0.809911	0.69826
485	H	0.277726	0.79997	0.71889
486	H	0.246477	0.830531	0.719568
487	C	0.264814	0.743995	0.670378
488	C	0.28309	0.74363	0.964756
489	C	0.30163	0.725478	0.965434
490	C	0.30181	0.70699	0.670382
491	C	0.28333	0.707182	0.708662
492	C	0.265178	0.725722	0.709337
493	H	0.314785	0.72545	0.937267
494	H	0.283346	0.694017	0.736825
495	H	0.178271	0.762315	0.954511
496	H	0.208838	0.731074	0.955196
497	N	0.246871	0.725699	0.748242
498	N	0.283112	0.761932	0.925844
499	O	0.270042	0.741965	0.892844
500	O	0.223529	0.69563	0.758483
501	O	0.266837	0.73877	0.781242
502	O	0.313182	0.785276	0.915603
503	C	0.209087	0.911165	0.003705
504	C	0.238386	0.930251	0.97582
505	C	0.256635	0.966736	0.975766
506	C	0.24627	0.98554	0.670375
507	C	0.217098	0.966731	0.698313
508	C	0.198869	0.930246	0.69826
509	H	0.208809	0.979512	0.718887
510	H	0.17825	0.917703	0.719565
511	C	0.264786	0.522575	0.670378
512	C	0.265154	0.541216	0.964753
513	C	0.283306	0.577908	0.965434
514	C	0.30179	0.596575	0.670382
515	C	0.301599	0.577906	0.708665
516	C	0.283059	0.541214	0.709337
517	H	0.283336	0.591094	0.937267
518	H	0.314762	0.591086	0.736825
519	H	0.246467	0.917713	0.954515
520	H	0.277709	0.97952	0.955196
521	N	0.283079	0.52293	0.748245
522	N	0.246853	0.522938	0.925844
523	O	0.266822	0.529833	0.892847
524	O	0.313149	0.029656	0.75849
525	O	0.270006	0.529823	0.781245
526	O	0.223512	0.029664	0.9156
527	C	0.486206	0.743967	0.670375
528	C	0.467564	0.725693	0.964753
529	C	0.430872	0.707153	0.965431
530	C	0.412206	0.706972	0.670382
531	C	0.430876	0.72545	0.708662
532	C	0.467568	0.743602	0.709337
533	H	0.417689	0.693999	0.937264
534	H	0.417695	0.725432	0.736825
535	N	0.485852	0.761906	0.748245
536	N	0.485845	0.725673	0.925841
537	O	0.478948	0.738744	0.892844
538	O	0.979127	0.78525	0.758487
539	O	0.478958	0.741939	0.781242
540	O	0.979118	0.695605	0.9156
541	C	0.634821	0.318284	0.003704
542	C	0.653806	0.354971	0.003705
543	C	0.690489	0.373962	0.003705
544	C	0.708189	0.354976	0.003705
545	C	0.690497	0.318292	0.003705
546	C	0.653814	0.300594	0.003704
547	H	0.734693	0.368231	0.003705
548	H	0.640565	0.274091	0.003704
549	H	0.640552	0.368218	0.003705
550	C	0.875411	0.188579	0.003713
551	C	0.856811	0.151962	0.003713
552	C	0.820194	0.133372	0.003714
553	C	0.802175	0.151972	0.003714
554	C	0.820204	0.188589	0.003714
555	C	0.856819	0.206606	0.003713
556	H	0.775635	0.138705	0.003714
557	H	0.870094	0.233147	0.003713
558	H	0.870078	0.138688	0.003713
559	C	0.709104	0.299695	0.337039
560	C	0.69889	0.270396	0.30915
561	C	0.717126	0.252147	0.309098
562	C	0.746294	0.262511	0.003706
563	C	0.756656	0.291681	0.031645
564	C	0.738402	0.309913	0.031593
565	H	0.777728	0.299972	0.052221
566	H	0.746477	0.33053	0.0529
567	C	0.764814	0.243996	0.00371
568	C	0.783089	0.24363	0.298087
569	C	0.801629	0.225478	0.298766
570	C	0.801811	0.206991	0.003713
571	C	0.783329	0.207181	0.041995
572	C	0.765178	0.225721	0.042668
573	H	0.814785	0.22545	0.2706
574	H	0.783347	0.194017	0.070157
575	H	0.678272	0.262317	0.287843
576	H	0.708839	0.231074	0.288527
577	N	0.746873	0.225699	0.081575
578	N	0.783114	0.261934	0.259177
579	O	0.770042	0.241966	0.226178
580	O	0.723528	0.19563	0.091816
581	O	0.766836	0.23877	0.114576
582	O	0.813182	0.285275	0.248937
583	C	0.709089	0.411166	0.337039
584	C	0.738388	0.430253	0.309151
585	C	0.756635	0.466737	0.3091
586	C	0.746268	0.485539	0.003707
587	C	0.7171	0.466732	0.031644
588	C	0.698869	0.430248	0.031592
589	H	0.708809	0.479514	0.052219
590	H	0.678252	0.417705	0.052898
591	C	0.764787	0.022576	0.00371
592	C	0.765155	0.041217	0.298086
593	C	0.783306	0.077909	0.298765
594	C	0.801791	0.096576	0.003713
595	C	0.801599	0.077906	0.041996
596	C	0.78306	0.041214	0.04267
597	H	0.783337	0.091093	0.270599
598	H	0.814762	0.091087	0.070159
599	H	0.746468	0.417712	0.287845
600	H	0.777709	0.479521	0.28853
601	N	0.783079	0.02293	0.081578
602	N	0.746853	0.022937	0.259176
603	O	0.766821	0.029834	0.226178
604	O	0.813147	0.529655	0.091822
605	O	0.770005	0.029824	0.114577
606	O	0.723511	0.529665	0.248932
607	C	0.597617	0.299679	0.337039
608	C	0.57853	0.309892	0.30915
609	C	0.542046	0.291655	0.309099
610	C	0.523242	0.262488	0.003706
611	C	0.54205	0.252125	0.031643
612	C	0.578535	0.270378	0.031591
613	H	0.52927	0.231054	0.052218
614	H	0.591077	0.262304	0.052898
615	C	0.986205	0.243968	0.003709
616	C	0.967565	0.225694	0.298086
617	C	0.930871	0.207154	0.298765
618	C	0.912206	0.206972	0.003713
619	C	0.930877	0.225451	0.041995
620	C	0.967569	0.243603	0.042669
621	H	0.917688	0.194	0.270598
622	H	0.917696	0.225433	0.070158
623	H	0.59107	0.330512	0.287844
624	H	0.529261	0.299946	0.288529
625	N	0.985853	0.261908	0.081577
626	N	0.985844	0.225673	0.259175
627	O	0.978947	0.238745	0.226177
628	O	0.479125	0.285249	0.09182
629	O	0.978957	0.24194	0.114576
630	O	0.479117	0.195604	0.248931
631	C	0.634821	0.318284	0.337039
632	C	0.653806	0.354971	0.337039
633	C	0.690489	0.373962	0.337039
634	C	0.708189	0.354976	0.337039
635	C	0.690497	0.318292	0.337039
636	C	0.653814	0.300594	0.337039
637	H	0.734693	0.368231	0.337039
638	H	0.640565	0.274091	0.337039
639	H	0.640552	0.368218	0.337039
640	C	0.875411	0.188579	0.337045
641	C	0.856811	0.151962	0.337049
642	C	0.820194	0.133372	0.337049
643	C	0.802175	0.151972	0.337049
644	C	0.820204	0.188589	0.337049
645	C	0.856819	0.206606	0.337045
646	H	0.775635	0.138705	0.337049
647	H	0.870094	0.233147	0.337045
648	H	0.870078	0.138688	0.337045
649	C	0.709104	0.299695	0.670372
650	C	0.69889	0.270396	0.642484
651	C	0.717126	0.252147	0.642433
652	C	0.746294	0.262511	0.337039
653	C	0.756656	0.291681	0.36498
654	C	0.738402	0.309913	0.364927
655	H	0.777728	0.299972	0.385554
656	H	0.746477	0.33053	0.386235
657	C	0.764814	0.243996	0.337042
658	C	0.783089	0.24363	0.63142
659	C	0.801629	0.225478	0.632101
660	C	0.801811	0.206991	0.337045
661	C	0.783329	0.207181	0.375329
662	C	0.765178	0.225721	0.376001
663	H	0.814785	0.22545	0.603935
664	H	0.783347	0.194017	0.403492
665	H	0.678272	0.262317	0.621178
666	H	0.708839	0.231074	0.62186
667	N	0.746873	0.225699	0.414909
668	N	0.783114	0.261934	0.592512
669	O	0.770042	0.241966	0.559511
670	O	0.723528	0.19563	0.42515
671	O	0.766836	0.23877	0.447909
672	O	0.813182	0.285275	0.58227
673	C	0.709089	0.411166	0.670372
674	C	0.738388	0.430253	0.642487
675	C	0.756635	0.466737	0.642433
676	C	0.746268	0.485539	0.337042
677	C	0.7171	0.466732	0.364977
678	C	0.698869	0.430248	0.364927
679	H	0.708809	0.479514	0.385554
680	H	0.678252	0.417705	0.386232
681	C	0.764787	0.022576	0.337045
682	C	0.765155	0.041217	0.63142
683	C	0.783306	0.077909	0.632098
684	C	0.801791	0.096576	0.337049
685	C	0.801599	0.077906	0.375329
686	C	0.78306	0.041214	0.376004
687	H	0.783337	0.091093	0.603931
688	H	0.814762	0.091087	0.403492
689	H	0.746468	0.417712	0.621178
690	H	0.777709	0.479521	0.621863
691	N	0.783079	0.02293	0.414912
692	N	0.746853	0.022937	0.592508
693	O	0.766821	0.029834	0.559511
694	O	0.813147	0.529655	0.425157
695	O	0.770005	0.029824	0.447909
696	O	0.723511	0.529665	0.582267
697	C	0.597617	0.299679	0.670372
698	C	0.57853	0.309892	0.642484
699	C	0.542046	0.291655	0.642433
700	C	0.523242	0.262488	0.337039
701	C	0.54205	0.252125	0.364977
702	C	0.578535	0.270378	0.364927
703	H	0.52927	0.231054	0.385554
704	H	0.591077	0.262304	0.386232
705	C	0.986205	0.243968	0.337042
706	C	0.967565	0.225694	0.63142
707	C	0.930871	0.207154	0.632098
708	C	0.912206	0.206972	0.337045
709	C	0.930877	0.225451	0.375329
710	C	0.967569	0.243603	0.376004
711	H	0.917688	0.194	0.603931
712	H	0.917696	0.225433	0.403492
713	H	0.59107	0.330512	0.621178
714	H	0.529261	0.299946	0.621863
715	N	0.985853	0.261908	0.414909
716	N	0.985844	0.225673	0.592508
717	O	0.978947	0.238745	0.559511
718	O	0.479125	0.285249	0.425154
719	O	0.978957	0.24194	0.447909
720	O	0.479117	0.195604	0.582267
721	C	0.634821	0.318284	0.670372
722	C	0.653806	0.354971	0.670372
723	C	0.690489	0.373962	0.670372
724	C	0.708189	0.354976	0.670372
725	C	0.690497	0.318292	0.670372
726	C	0.653814	0.300594	0.670372
727	H	0.734693	0.368231	0.670372
728	H	0.640565	0.274091	0.670372
729	H	0.640552	0.368218	0.670372
730	C	0.875411	0.188579	0.670382
731	C	0.856811	0.151962	0.670382
732	C	0.820194	0.133372	0.670382
733	C	0.802175	0.151972	0.670382
734	C	0.820204	0.188589	0.670382
735	C	0.856819	0.206606	0.670382
736	H	0.775635	0.138705	0.670382
737	H	0.870094	0.233147	0.670382
738	H	0.870078	0.138688	0.670382
739	C	0.709104	0.299695	0.003704
740	C	0.69889	0.270396	0.975816
741	C	0.717126	0.252147	0.975766
742	C	0.746294	0.262511	0.670375
743	C	0.756656	0.291681	0.698313
744	C	0.738402	0.309913	0.69826
745	H	0.777728	0.299972	0.71889
746	H	0.746477	0.33053	0.719568
747	C	0.764814	0.243996	0.670378
748	C	0.783089	0.24363	0.964756
749	C	0.801629	0.225478	0.965434
750	C	0.801811	0.206991	0.670382
751	C	0.783329	0.207181	0.708662
752	C	0.765178	0.225721	0.709337
753	H	0.814785	0.22545	0.937267
754	H	0.783347	0.194017	0.736825
755	H	0.678272	0.262317	0.954511
756	H	0.708839	0.231074	0.955196
757	N	0.746873	0.225699	0.748242
758	N	0.783114	0.261934	0.925844
759	O	0.770042	0.241966	0.892844
760	O	0.723528	0.19563	0.758483
761	O	0.766836	0.23877	0.781242
762	O	0.813182	0.285275	0.915603
763	C	0.709089	0.411166	0.003705
764	C	0.738388	0.430253	0.97582
765	C	0.756635	0.466737	0.975766
766	C	0.746268	0.485539	0.670375
767	C	0.7171	0.466732	0.698313
768	C	0.698869	0.430248	0.69826
769	H	0.708809	0.479514	0.718887
770	H	0.678252	0.417705	0.719565
771	C	0.764787	0.022576	0.670378
772	C	0.765155	0.041217	0.964753
773	C	0.783306	0.077909	0.965434
774	C	0.801791	0.096576	0.670382
775	C	0.801599	0.077906	0.708665
776	C	0.78306	0.041214	0.709337
777	H	0.783337	0.091093	0.937267
778	H	0.814762	0.091087	0.736825
779	H	0.746468	0.417712	0.954515
780	H	0.777709	0.479521	0.955196
781	N	0.783079	0.02293	0.748245
782	N	0.746853	0.022937	0.925844
783	O	0.766821	0.029834	0.892847
784	O	0.813147	0.529655	0.75849
785	O	0.770005	0.029824	0.781245
786	O	0.723511	0.529665	0.9156
787	C	0.597617	0.299679	0.003704
788	C	0.57853	0.309892	0.97582
789	C	0.542046	0.291655	0.975766
790	C	0.523242	0.262488	0.670375
791	C	0.54205	0.252125	0.69831
792	C	0.578535	0.270378	0.69826
793	H	0.52927	0.231054	0.718887
794	H	0.591077	0.262304	0.719565
795	C	0.986205	0.243968	0.670375
796	C	0.967565	0.225694	0.964753
797	C	0.930871	0.207154	0.965431
798	C	0.912206	0.206972	0.670382
799	C	0.930877	0.225451	0.708662
800	C	0.967569	0.243603	0.709337
801	H	0.917688	0.194	0.937267
802	H	0.917696	0.225433	0.736825
803	H	0.59107	0.330512	0.954511
804	H	0.529261	0.299946	0.955196
805	N	0.985853	0.261908	0.748245
806	N	0.985844	0.225673	0.925841
807	O	0.978947	0.238745	0.892844
808	O	0.479125	0.285249	0.758487
809	O	0.978957	0.24194	0.781242
810	O	0.479117	0.195604	0.9156
811	C	0.634821	0.818285	0.003704
812	C	0.653805	0.854969	0.003705
813	C	0.690488	0.87396	0.003705
814	C	0.708189	0.854977	0.003705
815	C	0.690495	0.818293	0.003705
816	C	0.653811	0.800592	0.003704
817	H	0.73469	0.86823	0.003705
818	H	0.640564	0.774089	0.003704
819	H	0.640551	0.868219	0.003705
820	C	0.875409	0.688579	0.003713
821	C	0.856811	0.651963	0.003713
822	C	0.820193	0.633371	0.003714
823	C	0.802175	0.65197	0.003714
824	C	0.820203	0.688587	0.003713
825	C	0.856819	0.706604	0.003713
826	H	0.775636	0.638705	0.003714
827	H	0.870094	0.733146	0.003713
828	H	0.870076	0.638687	0.003713
829	C	0.709101	0.799693	0.337039
830	C	0.698889	0.770394	0.30915
831	C	0.717126	0.752147	0.309098
832	C	0.746294	0.762512	0.003706
833	C	0.756657	0.791682	0.031645
834	C	0.738402	0.809911	0.031593
835	H	0.777727	0.79997	0.052221
836	H	0.746476	0.830531	0.0529
837	C	0.764814	0.743995	0.00371
838	C	0.783089	0.74363	0.298087
839	C	0.801629	0.725478	0.298766
840	C	0.80181	0.70699	0.003713
841	C	0.78333	0.707182	0.041995
842	C	0.765178	0.725722	0.042668
843	H	0.814785	0.72545	0.2706
844	H	0.783347	0.694017	0.070157
845	H	0.678271	0.762315	0.287843
846	H	0.708837	0.731074	0.288527
847	N	0.74687	0.725699	0.081575
848	N	0.783113	0.761932	0.259177
849	O	0.770042	0.741965	0.226178
850	O	0.723528	0.69563	0.091816
851	O	0.766836	0.73877	0.114576
852	O	0.813182	0.785276	0.248937
853	C	0.709088	0.911165	0.337039
854	C	0.738388	0.930251	0.309151
855	C	0.756634	0.966736	0.3091
856	C	0.746269	0.98554	0.003707
857	C	0.717099	0.966731	0.031644
858	C	0.698868	0.930246	0.031592
859	H	0.708808	0.979512	0.052219
860	H	0.67825	0.917703	0.052898
861	C	0.764787	0.522575	0.00371
862	C	0.765153	0.541216	0.298086
863	C	0.783306	0.577908	0.298765
864	C	0.801791	0.596575	0.003713
865	C	0.801599	0.577906	0.041996
866	C	0.78306	0.541214	0.04267
867	H	0.783337	0.591094	0.270599
868	H	0.814762	0.591086	0.070159
869	H	0.746466	0.917713	0.287845
870	H	0.777708	0.97952	0.28853
871	N	0.783079	0.52293	0.081578
872	N	0.746853	0.522938	0.259176
873	O	0.766821	0.529833	0.226178
874	O	0.813147	0.029656	0.091822
875	O	0.770005	0.529823	0.114577
876	O	0.723513	0.029664	0.248932
877	C	0.597617	0.79968	0.337039
878	C	0.57853	0.809893	0.30915
879	C	0.542045	0.791656	0.309099
880	C	0.523241	0.762486	0.003706
881	C	0.542049	0.752123	0.031643
882	C	0.578535	0.770379	0.031591
883	H	0.529269	0.731053	0.052218
884	H	0.591078	0.762305	0.052898
885	C	0.986205	0.743967	0.003709
886	C	0.967565	0.725693	0.298086
887	C	0.930871	0.707153	0.298765
888	C	0.912206	0.706972	0.003713
889	C	0.930875	0.72545	0.041995
890	C	0.967567	0.743602	0.042669
891	H	0.917688	0.693999	0.270598
892	H	0.917695	0.725432	0.070158
893	H	0.59107	0.830512	0.287844
894	H	0.52926	0.799945	0.288529
895	N	0.98585	0.761906	0.081577
896	N	0.985844	0.725673	0.259175
897	O	0.978947	0.738744	0.226177
898	O	0.479126	0.78525	0.09182
899	O	0.978957	0.741939	0.114576
900	O	0.479118	0.695605	0.248931
901	C	0.634821	0.818285	0.337039
902	C	0.653805	0.854969	0.337039
903	C	0.690488	0.87396	0.337039
904	C	0.708189	0.854977	0.337039
905	C	0.690495	0.818293	0.337039
906	C	0.653811	0.800592	0.337039
907	H	0.73469	0.86823	0.337039
908	H	0.640564	0.774089	0.337039
909	H	0.640551	0.868219	0.337039
910	C	0.875409	0.688579	0.337045
911	C	0.856811	0.651963	0.337049
912	C	0.820193	0.633371	0.337049
913	C	0.802175	0.65197	0.337049
914	C	0.820203	0.688587	0.337049
915	C	0.856819	0.706604	0.337045
916	H	0.775636	0.638705	0.337049
917	H	0.870094	0.733146	0.337045
918	H	0.870076	0.638687	0.337045
919	C	0.709101	0.799693	0.670372
920	C	0.698889	0.770394	0.642484
921	C	0.717126	0.752147	0.642433
922	C	0.746294	0.762512	0.337039
923	C	0.756657	0.791682	0.36498
924	C	0.738402	0.809911	0.364927
925	H	0.777727	0.79997	0.385554
926	H	0.746476	0.830531	0.386235
927	C	0.764814	0.743995	0.337042
928	C	0.783089	0.74363	0.63142
929	C	0.801629	0.725478	0.632101
930	C	0.80181	0.70699	0.337045
931	C	0.78333	0.707182	0.375329
932	C	0.765178	0.725722	0.376001
933	H	0.814785	0.72545	0.603935
934	H	0.783347	0.694017	0.403492
935	H	0.678271	0.762315	0.621178
936	H	0.708837	0.731074	0.62186
937	N	0.74687	0.725699	0.414909
938	N	0.783113	0.761932	0.592512
939	O	0.770042	0.741965	0.559511
940	O	0.723528	0.69563	0.42515
941	O	0.766836	0.73877	0.447909
942	O	0.813182	0.785276	0.58227
943	C	0.709088	0.911165	0.670372
944	C	0.738388	0.930251	0.642487
945	C	0.756634	0.966736	0.642433
946	C	0.746269	0.98554	0.337042
947	C	0.717099	0.966731	0.364977
948	C	0.698868	0.930246	0.364927
949	H	0.708808	0.979512	0.385554
950	H	0.67825	0.917703	0.386232
951	C	0.764787	0.522575	0.337045
952	C	0.765153	0.541216	0.63142
953	C	0.783306	0.577908	0.632098
954	C	0.801791	0.596575	0.337049
955	C	0.801599	0.577906	0.375329
956	C	0.78306	0.541214	0.376004
957	H	0.783337	0.591094	0.603931
958	H	0.814762	0.591086	0.403492
959	H	0.746466	0.917713	0.621178
960	H	0.777708	0.97952	0.621863
961	N	0.783079	0.52293	0.414912
962	N	0.746853	0.522938	0.592508
963	O	0.766821	0.529833	0.559511
964	O	0.813147	0.029656	0.425157
965	O	0.770005	0.529823	0.447909
966	O	0.723513	0.029664	0.582267
967	C	0.597617	0.79968	0.670372
968	C	0.57853	0.809893	0.642484
969	C	0.542045	0.791656	0.642433
970	C	0.523241	0.762486	0.337039
971	C	0.542049	0.752123	0.364977
972	C	0.578535	0.770379	0.364927
973	H	0.529269	0.731053	0.385551
974	H	0.591078	0.762305	0.386232
975	C	0.986205	0.743967	0.337042
976	C	0.967565	0.725693	0.63142
977	C	0.930871	0.707153	0.632098
978	C	0.912206	0.706972	0.337045
979	C	0.930875	0.72545	0.375329
980	C	0.967567	0.743602	0.376004
981	H	0.917688	0.693999	0.603931
982	H	0.917695	0.725432	0.403492
983	H	0.59107	0.830512	0.621178
984	H	0.52926	0.799945	0.621863
985	N	0.98585	0.761906	0.414909
986	N	0.985844	0.725673	0.592508
987	O	0.978947	0.738744	0.559511
988	O	0.479126	0.78525	0.425154
989	O	0.978957	0.741939	0.447909
990	O	0.479118	0.695605	0.582263
991	C	0.634821	0.818285	0.670372
992	C	0.653805	0.854969	0.670372
993	C	0.690488	0.87396	0.670372
994	C	0.708189	0.854977	0.670372
995	C	0.690495	0.818293	0.670372
996	C	0.653811	0.800592	0.670372
997	H	0.73469	0.86823	0.670372
998	H	0.640564	0.774089	0.670372
999	H	0.640551	0.868219	0.670372
1000	C	0.875409	0.688579	0.670382
1001	C	0.856811	0.651963	0.670382
1002	C	0.820193	0.633371	0.670382
1003	C	0.802175	0.65197	0.670382
1004	C	0.820203	0.688587	0.670382
1005	C	0.856819	0.706604	0.670382
1006	H	0.775636	0.638705	0.670382
1007	H	0.870094	0.733146	0.670382
1008	H	0.870076	0.638687	0.670382
1009	C	0.709101	0.799693	0.003704
1010	C	0.698889	0.770394	0.975816
1011	C	0.717126	0.752147	0.975766
1012	C	0.746294	0.762512	0.670375
1013	C	0.756657	0.791682	0.698313
1014	C	0.738402	0.809911	0.69826
1015	H	0.777727	0.79997	0.71889
1016	H	0.746476	0.830531	0.719568
1017	C	0.764814	0.743995	0.670378
1018	C	0.783089	0.74363	0.964756
1019	C	0.801629	0.725478	0.965434
1020	C	0.80181	0.70699	0.670382
1021	C	0.78333	0.707182	0.708662
1022	C	0.765178	0.725722	0.709337
1023	H	0.814785	0.72545	0.937267
1024	H	0.783347	0.694017	0.736825
1025	H	0.678271	0.762315	0.954511
1026	H	0.708837	0.731074	0.955196
1027	N	0.74687	0.725699	0.748242
1028	N	0.783113	0.761932	0.925844
1029	O	0.770042	0.741965	0.892844
1030	O	0.723528	0.69563	0.758483
1031	O	0.766836	0.73877	0.781242
1032	O	0.813182	0.785276	0.915603
1033	C	0.709088	0.911165	0.003705
1034	C	0.738388	0.930251	0.97582
1035	C	0.756634	0.966736	0.975766
1036	C	0.746269	0.98554	0.670375
1037	C	0.717099	0.966731	0.698313
1038	C	0.698868	0.930246	0.69826
1039	H	0.708808	0.979512	0.718887
1040	H	0.67825	0.917703	0.719565
1041	C	0.764787	0.522575	0.670378
1042	C	0.765153	0.541216	0.964753
1043	C	0.783306	0.577908	0.965434
1044	C	0.801791	0.596575	0.670382
1045	C	0.801599	0.577906	0.708665
1046	C	0.78306	0.541214	0.709337
1047	H	0.783337	0.591094	0.937267
1048	H	0.814762	0.591086	0.736825
1049	H	0.746466	0.917713	0.954515
1050	H	0.777708	0.97952	0.955196
1051	N	0.783079	0.52293	0.748245
1052	N	0.746853	0.522938	0.925844
1053	O	0.766821	0.529833	0.892847
1054	O	0.813147	0.029656	0.75849
1055	O	0.770005	0.529823	0.781245
1056	O	0.723513	0.029664	0.9156
1057	C	0.597617	0.79968	0.003704
1058	C	0.57853	0.809893	0.97582
1059	C	0.542045	0.791656	0.975766
1060	C	0.523241	0.762486	0.670375
1061	C	0.542049	0.752123	0.69831
1062	C	0.578535	0.770379	0.69826
1063	H	0.529269	0.731053	0.718887
1064	H	0.591078	0.762305	0.719565
1065	C	0.986205	0.743967	0.670375
1066	C	0.967565	0.725693	0.964753
1067	C	0.930871	0.707153	0.965431
1068	C	0.912206	0.706972	0.670382
1069	C	0.930875	0.72545	0.708662
1070	C	0.967567	0.743602	0.709337
1071	H	0.917688	0.693999	0.937264
1072	H	0.917695	0.725432	0.736825
1073	H	0.59107	0.830512	0.954511
1074	H	0.52926	0.799945	0.955196
1075	N	0.98585	0.761906	0.748245
1076	N	0.985844	0.725673	0.925841
1077	O	0.978947	0.738744	0.892844
1078	O	0.479126	0.78525	0.758487
1079	O	0.978957	0.741939	0.781242
1080	O	0.479118	0.695605	0.9156
