data_C432H288N216_2018-02-15_10:37:03
#******************************************
#
# CIF file created by Zeo++
# Zeo++ is an open source package to
# analyze microporous materials
#
#*******************************************

_cell_length_a		44.1349   
_cell_length_b		44.1349   
_cell_length_c		29.6966   
_cell_angle_alpha		90   
_cell_angle_beta		90   
_cell_angle_gamma		120   

_symmetry_space_group_name_H-M		'P1'
_symmetry_Int_Tables_number		1
_symmetry_cell_setting		Monoclinic

loop_
_symmetry_equiv_pos_as_xyz
'+x,+y,+z'

loop_
_atom_site_label
_atom_site_type_symbol
_atom_site_fract_x
_atom_site_fract_y
_atom_site_fract_z
1	C	0.026593	0.264576	0.335137
2	C	0.04618	0.274374	0.293522
3	C	0.083458	0.293012	0.295856
4	C	0.101738	0.302146	0.336981
5	C	0.08174	0.292141	0.043159
6	N	0.046452	0.274499	0.039824
7	H	0.097923	0.300249	0.266775
8	H	0.093184	0.29786	0.074279
9	N	0.032844	0.267713	0.250825
10	H	0.048063	0.275326	0.224491
11	C	0.026593	0.264576	0.66847
12	C	0.04618	0.274374	0.626856
13	C	0.083458	0.293012	0.62919
14	C	0.101738	0.302146	0.670316
15	C	0.08174	0.292141	0.376494
16	N	0.046452	0.274499	0.373157
17	H	0.097923	0.300249	0.600109
18	H	0.093184	0.29786	0.407612
19	N	0.032844	0.267713	0.584158
20	H	0.048063	0.275326	0.557825
21	C	0.026593	0.264576	0.001805
22	C	0.04618	0.274374	0.96019
23	C	0.083458	0.293012	0.962524
24	C	0.101738	0.302146	0.003647
25	C	0.08174	0.292141	0.709825
26	N	0.046452	0.274499	0.706491
27	H	0.097923	0.300249	0.93344
28	H	0.093184	0.29786	0.740947
29	N	0.032844	0.267713	0.917492
30	H	0.048063	0.275326	0.891159
31	C	0.026593	0.764576	0.335137
32	C	0.046181	0.774374	0.293522
33	C	0.083458	0.793013	0.295856
34	C	0.101739	0.802146	0.336981
35	C	0.08174	0.792142	0.043159
36	N	0.046452	0.7745	0.039824
37	H	0.097925	0.800249	0.266775
38	H	0.093185	0.797861	0.074279
39	N	0.032845	0.767713	0.250825
40	H	0.048063	0.775324	0.224491
41	C	0.026593	0.764576	0.66847
42	C	0.046181	0.774374	0.626856
43	C	0.083458	0.793013	0.62919
44	C	0.101739	0.802146	0.670316
45	C	0.08174	0.792142	0.376494
46	N	0.046452	0.7745	0.373157
47	H	0.097925	0.800249	0.600109
48	H	0.093185	0.797861	0.407612
49	N	0.032845	0.767713	0.584158
50	H	0.048063	0.775324	0.557825
51	C	0.026593	0.764576	0.001805
52	C	0.046181	0.774374	0.96019
53	C	0.083458	0.793013	0.962524
54	C	0.101739	0.802146	0.003647
55	C	0.08174	0.792142	0.709825
56	N	0.046452	0.7745	0.706491
57	H	0.097925	0.800249	0.93344
58	H	0.093185	0.797861	0.740947
59	N	0.032845	0.767713	0.917492
60	H	0.048063	0.775324	0.891159
61	H	0.008284	0.255438	0.244046
62	H	0.008284	0.255438	0.577379
63	H	0.008284	0.255438	0.910713
64	H	0.008284	0.755437	0.244046
65	H	0.008284	0.755437	0.577379
66	H	0.008284	0.755437	0.910713
67	N	0.15661	0.356162	0.004882
68	C	0.138608	0.320583	0.005111
69	N	0.156608	0.303001	0.004879
70	N	0.15661	0.356162	0.338214
71	C	0.138608	0.320583	0.338446
72	N	0.156608	0.303001	0.338214
73	N	0.15661	0.356162	0.671548
74	C	0.138608	0.320583	0.671777
75	N	0.156608	0.303001	0.671548
76	N	0.15661	0.856162	0.004882
77	C	0.138608	0.820581	0.005111
78	N	0.156609	0.803002	0.004879
79	N	0.15661	0.856162	0.338214
80	C	0.138608	0.820581	0.338446
81	N	0.156609	0.803002	0.338214
82	N	0.15661	0.856162	0.671548
83	C	0.138608	0.820581	0.671777
84	N	0.156609	0.803002	0.671548
85	C	0.192189	0.374162	0.005111
86	C	0.192188	0.32058	0.00511
87	N	0.209767	0.356159	0.004879
88	C	0.219758	0.292999	0.295856
89	C	0.210623	0.302146	0.336981
90	C	0.220627	0.292151	0.043159
91	H	0.212521	0.300228	0.266774
92	H	0.214911	0.297879	0.074278
93	C	0.219771	0.429313	0.295856
94	C	0.210625	0.411031	0.336981
95	C	0.220617	0.43103	0.043159
96	H	0.212542	0.414848	0.266775
97	H	0.214891	0.419586	0.074279
98	C	0.192189	0.374162	0.338446
99	C	0.192188	0.32058	0.338443
100	N	0.209767	0.356159	0.338214
101	C	0.219758	0.292999	0.62919
102	C	0.210623	0.302146	0.670312
103	C	0.220627	0.292151	0.376491
104	H	0.212521	0.300228	0.600109
105	H	0.214911	0.297879	0.407612
106	C	0.219771	0.429313	0.62919
107	C	0.210625	0.411031	0.670316
108	C	0.220617	0.43103	0.376494
109	H	0.212542	0.414848	0.600109
110	H	0.214891	0.419586	0.407612
111	C	0.192189	0.374162	0.671777
112	C	0.192188	0.32058	0.671777
113	N	0.209767	0.356159	0.671548
114	C	0.219758	0.292999	0.962524
115	C	0.210623	0.302146	0.003647
116	C	0.220627	0.292151	0.709825
117	H	0.212521	0.300228	0.93344
118	H	0.214911	0.297879	0.740947
119	C	0.219771	0.429313	0.962524
120	C	0.210625	0.411031	0.003647
121	C	0.220617	0.43103	0.709825
122	H	0.212542	0.414848	0.933443
123	H	0.214891	0.419586	0.740947
124	C	0.19219	0.874162	0.005111
125	C	0.192189	0.820581	0.00511
126	N	0.209768	0.85616	0.004879
127	C	0.219759	0.793	0.295856
128	C	0.210623	0.802146	0.336981
129	C	0.220628	0.792152	0.043159
130	H	0.212522	0.800228	0.266774
131	H	0.214911	0.797879	0.074278
132	C	0.219771	0.929311	0.295856
133	C	0.210627	0.911031	0.336981
134	C	0.220619	0.93103	0.043159
135	H	0.212541	0.914846	0.266775
136	H	0.214891	0.919587	0.074279
137	C	0.19219	0.874162	0.338446
138	C	0.192189	0.820581	0.338443
139	N	0.209768	0.85616	0.338214
140	C	0.219759	0.793	0.62919
141	C	0.210623	0.802146	0.670312
142	C	0.220628	0.792152	0.376491
143	H	0.212522	0.800228	0.600109
144	H	0.214911	0.797879	0.407612
145	C	0.219771	0.929311	0.62919
146	C	0.210627	0.911031	0.670316
147	C	0.220619	0.93103	0.376494
148	H	0.212541	0.914846	0.600109
149	H	0.214891	0.919587	0.407612
150	C	0.19219	0.874162	0.671777
151	C	0.192189	0.820581	0.671777
152	N	0.209768	0.85616	0.671548
153	C	0.219759	0.793	0.962524
154	C	0.210623	0.802146	0.003647
155	C	0.220628	0.792152	0.709825
156	H	0.212522	0.800228	0.93344
157	H	0.214911	0.797879	0.740947
158	C	0.219771	0.929311	0.962524
159	C	0.210627	0.911031	0.003647
160	C	0.220619	0.93103	0.709825
161	H	0.212541	0.914846	0.933443
162	H	0.214891	0.919587	0.740947
163	C	0.323136	0.136054	0.005105
164	N	0.358714	0.154054	0.005336
165	C	0.376717	0.189634	0.005108
166	N	0.358716	0.207214	0.005337
167	C	0.323136	0.189636	0.005108
168	N	0.305557	0.154056	0.005337
169	C	0.304703	0.208071	0.006571
170	C	0.294704	0.218071	0.300392
171	N	0.277059	0.235715	0.303727
172	C	0.267127	0.245642	0.008414
173	C	0.276921	0.235848	0.050029
174	C	0.295562	0.217212	0.047695
175	H	0.302794	0.209979	0.076777
176	C	0.248194	0.26457	0.335137
177	C	0.238396	0.274361	0.293522
178	N	0.238271	0.274507	0.039824
179	H	0.300427	0.21235	0.269273
180	N	0.245058	0.267686	0.250825
181	H	0.257333	0.2554	0.244047
182	H	0.237446	0.275292	0.224491
183	N	0.27025	0.242514	0.092726
184	H	0.27786	0.234905	0.11906
185	H	0.257964	0.254787	0.099504
186	C	0.304699	0.099185	0.00657
187	C	0.2947	0.079186	0.300392
188	N	0.277058	0.043898	0.303727
189	C	0.267128	0.024039	0.008414
190	C	0.276922	0.043626	0.050028
191	C	0.295558	0.080904	0.047695
192	H	0.302794	0.095369	0.076776
193	C	0.248198	0.486176	0.335137
194	C	0.23841	0.46659	0.293523
195	N	0.238262	0.466318	0.039824
196	H	0.300421	0.090629	0.269272
197	N	0.245084	0.479926	0.250825
198	H	0.25737	0.004485	0.244046
199	H	0.237478	0.464707	0.224491
200	N	0.270256	0.03029	0.092726
201	H	0.277866	0.045509	0.11906
202	H	0.257985	0.50573	0.099505
203	C	0.413585	0.208069	0.00657
204	C	0.433584	0.218067	0.300392
205	N	0.468873	0.235712	0.303727
206	C	0.488732	0.245644	0.008414
207	C	0.469144	0.23585	0.050029
208	C	0.431866	0.217209	0.047695
209	H	0.417401	0.209977	0.076776
210	H	0.422142	0.212344	0.269272
211	H	0.508284	0.255438	0.244046
212	N	0.48248	0.24252	0.092726
213	H	0.467263	0.234911	0.11906
214	H	0.007041	0.254806	0.099505
215	C	0.323136	0.136054	0.338439
216	N	0.358714	0.154054	0.338668
217	C	0.376717	0.189634	0.338439
218	N	0.358716	0.207214	0.338672
219	C	0.323136	0.189636	0.338439
220	N	0.305557	0.154056	0.338672
221	C	0.304703	0.208071	0.339904
222	C	0.294704	0.218071	0.633726
223	N	0.277059	0.235715	0.637059
224	C	0.267127	0.245642	0.341749
225	C	0.276921	0.235848	0.38336
226	C	0.295562	0.217212	0.38103
227	H	0.302794	0.209979	0.410111
228	C	0.248194	0.26457	0.66847
229	C	0.238396	0.274361	0.626856
230	N	0.238271	0.274507	0.373157
231	H	0.300427	0.21235	0.602608
232	N	0.245058	0.267686	0.584158
233	H	0.257333	0.2554	0.577379
234	H	0.237446	0.275292	0.557825
235	N	0.27025	0.242514	0.426059
236	H	0.27786	0.234905	0.452392
237	H	0.257964	0.254787	0.432837
238	C	0.304699	0.099185	0.339904
239	C	0.2947	0.079186	0.633726
240	N	0.277058	0.043898	0.637059
241	C	0.267128	0.024039	0.341746
242	C	0.276922	0.043626	0.38336
243	C	0.295558	0.080904	0.381027
244	H	0.302794	0.095369	0.410111
245	C	0.248198	0.486176	0.66847
246	C	0.23841	0.46659	0.626856
247	N	0.238262	0.466318	0.373157
248	H	0.300421	0.090629	0.602604
249	N	0.245084	0.479926	0.584158
250	H	0.25737	0.004485	0.577379
251	H	0.237478	0.464707	0.557825
252	N	0.270256	0.03029	0.426059
253	H	0.277866	0.045509	0.452392
254	H	0.257985	0.50573	0.432837
255	C	0.413585	0.208069	0.339904
256	C	0.433584	0.218067	0.633726
257	N	0.468873	0.235712	0.637059
258	C	0.488732	0.245644	0.341749
259	C	0.469144	0.23585	0.383364
260	C	0.431866	0.217209	0.38103
261	H	0.417401	0.209977	0.410111
262	H	0.422142	0.212344	0.602604
263	H	0.508284	0.255438	0.577379
264	N	0.48248	0.24252	0.426059
265	H	0.467263	0.234911	0.452395
266	H	0.007041	0.254806	0.432837
267	C	0.323136	0.136054	0.671774
268	N	0.358714	0.154054	0.672003
269	C	0.376717	0.189634	0.671774
270	N	0.358716	0.207214	0.672003
271	C	0.323136	0.189636	0.671774
272	N	0.305557	0.154056	0.672003
273	C	0.304703	0.208071	0.673239
274	C	0.294704	0.218071	0.96706
275	N	0.277059	0.235715	0.970394
276	C	0.267127	0.245642	0.67508
277	C	0.276921	0.235848	0.716695
278	C	0.295562	0.217212	0.714361
279	H	0.302794	0.209979	0.743445
280	C	0.248194	0.26457	0.001805
281	C	0.238396	0.274361	0.96019
282	N	0.238271	0.274507	0.706491
283	H	0.300427	0.21235	0.935939
284	N	0.245058	0.267686	0.917492
285	H	0.257333	0.2554	0.910713
286	H	0.237446	0.275292	0.891159
287	N	0.27025	0.242514	0.759393
288	H	0.27786	0.234905	0.785726
289	H	0.257964	0.254787	0.766172
290	C	0.304699	0.099185	0.673239
291	C	0.2947	0.079186	0.96706
292	N	0.277058	0.043898	0.970394
293	C	0.267128	0.024039	0.67508
294	C	0.276922	0.043626	0.716695
295	C	0.295558	0.080904	0.714361
296	H	0.302794	0.095369	0.743442
297	C	0.248198	0.486176	0.001805
298	C	0.23841	0.46659	0.96019
299	N	0.238262	0.466318	0.706491
300	H	0.300421	0.090629	0.935939
301	N	0.245084	0.479926	0.917492
302	H	0.25737	0.004485	0.910713
303	H	0.237478	0.464707	0.891159
304	N	0.270256	0.03029	0.759393
305	H	0.277866	0.045509	0.785726
306	H	0.257985	0.50573	0.766172
307	C	0.413585	0.208069	0.673239
308	C	0.433584	0.218067	0.96706
309	N	0.468873	0.235712	0.970394
310	C	0.488732	0.245644	0.67508
311	C	0.469144	0.23585	0.716695
312	C	0.431866	0.217209	0.714361
313	H	0.417401	0.209977	0.743442
314	H	0.422142	0.212344	0.935939
315	H	0.508284	0.255438	0.910713
316	N	0.48248	0.24252	0.759393
317	H	0.467263	0.234911	0.785726
318	H	0.007041	0.254806	0.766172
319	C	0.323135	0.636053	0.005105
320	N	0.358715	0.654053	0.005336
321	C	0.376718	0.689635	0.005108
322	N	0.358718	0.707214	0.005337
323	C	0.323137	0.689635	0.005108
324	N	0.305558	0.654056	0.005337
325	C	0.304704	0.708072	0.006571
326	C	0.294705	0.718072	0.300392
327	N	0.277059	0.735713	0.303727
328	C	0.267128	0.745642	0.008414
329	C	0.276922	0.735849	0.050029
330	C	0.295562	0.717211	0.047695
331	H	0.302795	0.709979	0.076777
332	C	0.248195	0.764571	0.335137
333	C	0.238397	0.774361	0.293522
334	N	0.238272	0.774508	0.039824
335	H	0.300427	0.71235	0.269273
336	N	0.245058	0.767684	0.250825
337	H	0.257333	0.755401	0.244047
338	H	0.237447	0.775293	0.224491
339	N	0.27025	0.742513	0.092726
340	H	0.27786	0.734905	0.11906
341	H	0.257964	0.754786	0.099504
342	C	0.304699	0.599184	0.00657
343	C	0.2947	0.579185	0.300392
344	N	0.277057	0.543897	0.303727
345	C	0.267129	0.524039	0.008414
346	C	0.276924	0.543627	0.050028
347	C	0.29556	0.580904	0.047695
348	H	0.302794	0.59537	0.076776
349	C	0.248199	0.986177	0.335137
350	C	0.23841	0.966588	0.293523
351	N	0.238264	0.966319	0.039824
352	H	0.300422	0.590629	0.269272
353	N	0.245085	0.979926	0.250825
354	H	0.257369	0.504485	0.244046
355	H	0.237478	0.964707	0.224491
356	N	0.270257	0.530289	0.092726
357	H	0.277867	0.545508	0.11906
358	H	0.257985	0.005731	0.099505
359	C	0.413587	0.708069	0.00657
360	C	0.433585	0.718066	0.300392
361	N	0.468873	0.735711	0.303727
362	C	0.488733	0.745645	0.008414
363	C	0.469144	0.735849	0.050029
364	C	0.431868	0.717211	0.047695
365	H	0.417402	0.709977	0.076776
366	H	0.422142	0.712344	0.269272
367	H	0.508285	0.755437	0.244046
368	N	0.482481	0.742521	0.092726
369	H	0.467262	0.73491	0.11906
370	H	0.007042	0.754807	0.099505
371	C	0.323135	0.636053	0.338439
372	N	0.358715	0.654053	0.338668
373	C	0.376718	0.689635	0.338439
374	N	0.358718	0.707214	0.338672
375	C	0.323137	0.689635	0.338439
376	N	0.305558	0.654056	0.338672
377	C	0.304704	0.708072	0.339904
378	C	0.294705	0.718072	0.633726
379	N	0.277059	0.735713	0.637059
380	C	0.267128	0.745642	0.341749
381	C	0.276922	0.735849	0.38336
382	C	0.295562	0.717211	0.38103
383	H	0.302795	0.709979	0.410111
384	C	0.248195	0.764571	0.66847
385	C	0.238397	0.774361	0.626856
386	N	0.238272	0.774508	0.373157
387	H	0.300427	0.71235	0.602608
388	N	0.245058	0.767684	0.584158
389	H	0.257333	0.755401	0.577379
390	H	0.237447	0.775293	0.557825
391	N	0.27025	0.742513	0.426059
392	H	0.27786	0.734905	0.452392
393	H	0.257964	0.754786	0.432837
394	C	0.304699	0.599184	0.339904
395	C	0.2947	0.579185	0.633726
396	N	0.277057	0.543897	0.637059
397	C	0.267129	0.524039	0.341746
398	C	0.276924	0.543627	0.38336
399	C	0.29556	0.580904	0.381027
400	H	0.302794	0.59537	0.410111
401	C	0.248199	0.986177	0.66847
402	C	0.23841	0.966588	0.626856
403	N	0.238264	0.966319	0.373157
404	H	0.300422	0.590629	0.602604
405	N	0.245085	0.979926	0.584158
406	H	0.257369	0.504485	0.577379
407	H	0.237478	0.964707	0.557825
408	N	0.270257	0.530289	0.426059
409	H	0.277867	0.545508	0.452392
410	H	0.257985	0.005731	0.432837
411	C	0.413587	0.708069	0.339904
412	C	0.433585	0.718066	0.633726
413	N	0.468873	0.735711	0.637059
414	C	0.488733	0.745645	0.341749
415	C	0.469144	0.735849	0.383364
416	C	0.431868	0.717211	0.38103
417	H	0.417402	0.709977	0.410111
418	H	0.422142	0.712344	0.602604
419	H	0.508285	0.755437	0.577379
420	N	0.482481	0.742521	0.426059
421	H	0.467262	0.73491	0.452395
422	H	0.007042	0.754807	0.432837
423	C	0.323135	0.636053	0.671774
424	N	0.358715	0.654053	0.672003
425	C	0.376718	0.689635	0.671774
426	N	0.358718	0.707214	0.672003
427	C	0.323137	0.689635	0.671774
428	N	0.305558	0.654056	0.672003
429	C	0.304704	0.708072	0.673239
430	C	0.294705	0.718072	0.96706
431	N	0.277059	0.735713	0.970394
432	C	0.267128	0.745642	0.67508
433	C	0.276922	0.735849	0.716695
434	C	0.295562	0.717211	0.714361
435	H	0.302795	0.709979	0.743445
436	C	0.248195	0.764571	0.001805
437	C	0.238397	0.774361	0.96019
438	N	0.238272	0.774508	0.706491
439	H	0.300427	0.71235	0.935939
440	N	0.245058	0.767684	0.917492
441	H	0.257333	0.755401	0.910713
442	H	0.237447	0.775293	0.891159
443	N	0.27025	0.742513	0.759393
444	H	0.27786	0.734905	0.785726
445	H	0.257964	0.754786	0.766172
446	C	0.304699	0.599184	0.673239
447	C	0.2947	0.579185	0.96706
448	N	0.277057	0.543897	0.970394
449	C	0.267129	0.524039	0.67508
450	C	0.276924	0.543627	0.716695
451	C	0.29556	0.580904	0.714361
452	H	0.302794	0.59537	0.743442
453	C	0.248199	0.986177	0.001805
454	C	0.23841	0.966588	0.96019
455	N	0.238264	0.966319	0.706491
456	H	0.300422	0.590629	0.935939
457	N	0.245085	0.979926	0.917492
458	H	0.257369	0.504485	0.910713
459	H	0.237478	0.964707	0.891159
460	N	0.270257	0.530289	0.759393
461	H	0.277867	0.545508	0.785726
462	H	0.257985	0.005731	0.766172
463	C	0.413587	0.708069	0.673239
464	C	0.433585	0.718066	0.96706
465	N	0.468873	0.735711	0.970394
466	C	0.488733	0.745645	0.67508
467	C	0.469144	0.735849	0.716695
468	C	0.431868	0.717211	0.714361
469	H	0.417402	0.709977	0.743442
470	H	0.422142	0.712344	0.935939
471	H	0.508285	0.755437	0.910713
472	N	0.482481	0.742521	0.759393
473	H	0.467262	0.73491	0.785726
474	H	0.007042	0.754807	0.766172
475	C	0.69219	0.374162	0.005111
476	N	0.65661	0.356162	0.004882
477	C	0.638609	0.320583	0.005111
478	N	0.656607	0.303001	0.004879
479	C	0.692187	0.32058	0.00511
480	N	0.709766	0.356159	0.004879
481	C	0.823135	0.136054	0.005105
482	N	0.858715	0.154054	0.005336
483	C	0.876718	0.189634	0.005108
484	N	0.858717	0.207214	0.005337
485	C	0.823138	0.189636	0.005108
486	N	0.805558	0.154056	0.005337
487	C	0.804703	0.208071	0.006571
488	C	0.794704	0.218071	0.300392
489	N	0.777059	0.235715	0.303727
490	C	0.767128	0.245642	0.008414
491	C	0.776922	0.235848	0.050029
492	C	0.795561	0.217212	0.047695
493	H	0.802793	0.209979	0.076777
494	C	0.748195	0.26457	0.335137
495	C	0.738396	0.274361	0.293522
496	C	0.719758	0.292999	0.295856
497	C	0.710624	0.302146	0.336981
498	C	0.720628	0.292151	0.043159
499	N	0.738273	0.274507	0.039824
500	H	0.712522	0.300228	0.266774
501	H	0.714911	0.297879	0.074278
502	H	0.800426	0.21235	0.269273
503	N	0.745058	0.267686	0.250825
504	H	0.757334	0.2554	0.244047
505	H	0.737446	0.275292	0.224491
506	N	0.770249	0.242514	0.092726
507	H	0.77786	0.234905	0.11906
508	H	0.757963	0.254787	0.099504
509	C	0.804698	0.099185	0.00657
510	C	0.794701	0.079186	0.300392
511	N	0.777056	0.043898	0.303727
512	C	0.767129	0.024039	0.008414
513	C	0.776923	0.043626	0.050028
514	C	0.79556	0.080904	0.047695
515	H	0.802792	0.095369	0.076776
516	C	0.748199	0.486176	0.335137
517	C	0.738411	0.46659	0.293523
518	C	0.719772	0.429313	0.295856
519	C	0.710624	0.411031	0.336981
520	C	0.720617	0.43103	0.043159
521	N	0.738263	0.466318	0.039824
522	H	0.712542	0.414848	0.266775
523	H	0.71489	0.419586	0.074279
524	H	0.800422	0.090629	0.269272
525	N	0.745085	0.479926	0.250825
526	H	0.757371	0.004485	0.244046
527	H	0.737478	0.464707	0.224491
528	N	0.770257	0.03029	0.092726
529	H	0.777867	0.045509	0.11906
530	H	0.757985	0.50573	0.099505
531	C	0.913587	0.208069	0.00657
532	C	0.933585	0.218067	0.300392
533	N	0.968874	0.235712	0.303727
534	C	0.988731	0.245644	0.008414
535	C	0.969145	0.23585	0.050029
536	C	0.931867	0.217209	0.047695
537	H	0.917402	0.209977	0.076776
538	C	0.526593	0.264576	0.335137
539	C	0.546181	0.274374	0.293522
540	C	0.583458	0.293012	0.295856
541	C	0.601739	0.302146	0.336981
542	C	0.58174	0.292141	0.043159
543	N	0.546452	0.274499	0.039824
544	H	0.597925	0.300249	0.266775
545	H	0.593184	0.29786	0.074279
546	H	0.922141	0.212344	0.269272
547	N	0.532845	0.267713	0.250825
548	H	0.548064	0.275326	0.224491
549	N	0.982481	0.24252	0.092726
550	H	0.967261	0.234911	0.11906
551	H	0.50704	0.254806	0.099505
552	C	0.69219	0.374162	0.338446
553	N	0.65661	0.356162	0.338214
554	C	0.638609	0.320583	0.338446
555	N	0.656607	0.303001	0.338214
556	C	0.692187	0.32058	0.338443
557	N	0.709766	0.356159	0.338214
558	C	0.823135	0.136054	0.338439
559	N	0.858715	0.154054	0.338668
560	C	0.876718	0.189634	0.338439
561	N	0.858717	0.207214	0.338672
562	C	0.823138	0.189636	0.338439
563	N	0.805558	0.154056	0.338672
564	C	0.804703	0.208071	0.339904
565	C	0.794704	0.218071	0.633726
566	N	0.777059	0.235715	0.637059
567	C	0.767128	0.245642	0.341749
568	C	0.776922	0.235848	0.38336
569	C	0.795561	0.217212	0.38103
570	H	0.802793	0.209979	0.410111
571	C	0.748195	0.26457	0.66847
572	C	0.738396	0.274361	0.626856
573	C	0.719758	0.292999	0.62919
574	C	0.710624	0.302146	0.670312
575	C	0.720628	0.292151	0.376491
576	N	0.738273	0.274507	0.373157
577	H	0.712522	0.300228	0.600109
578	H	0.714911	0.297879	0.407612
579	H	0.800426	0.21235	0.602608
580	N	0.745058	0.267686	0.584158
581	H	0.757334	0.2554	0.577379
582	H	0.737446	0.275292	0.557825
583	N	0.770249	0.242514	0.426059
584	H	0.77786	0.234905	0.452392
585	H	0.757963	0.254787	0.432837
586	C	0.804698	0.099185	0.339904
587	C	0.794701	0.079186	0.633726
588	N	0.777056	0.043898	0.637059
589	C	0.767129	0.024039	0.341746
590	C	0.776923	0.043626	0.38336
591	C	0.79556	0.080904	0.381027
592	H	0.802792	0.095369	0.410111
593	C	0.748199	0.486176	0.66847
594	C	0.738411	0.46659	0.626856
595	C	0.719772	0.429313	0.62919
596	C	0.710624	0.411031	0.670316
597	C	0.720617	0.43103	0.376494
598	N	0.738263	0.466318	0.373157
599	H	0.712542	0.414848	0.600109
600	H	0.71489	0.419586	0.407612
601	H	0.800422	0.090629	0.602604
602	N	0.745085	0.479926	0.584158
603	H	0.757371	0.004485	0.577379
604	H	0.737478	0.464707	0.557825
605	N	0.770257	0.03029	0.426059
606	H	0.777867	0.045509	0.452392
607	H	0.757985	0.50573	0.432837
608	C	0.913587	0.208069	0.339904
609	C	0.933585	0.218067	0.633726
610	N	0.968874	0.235712	0.637059
611	C	0.988731	0.245644	0.341749
612	C	0.969145	0.23585	0.383364
613	C	0.931867	0.217209	0.38103
614	H	0.917402	0.209977	0.410111
615	C	0.526593	0.264576	0.66847
616	C	0.546181	0.274374	0.626856
617	C	0.583458	0.293012	0.62919
618	C	0.601739	0.302146	0.670316
619	C	0.58174	0.292141	0.376494
620	N	0.546452	0.274499	0.373157
621	H	0.597925	0.300249	0.600109
622	H	0.593184	0.29786	0.407612
623	H	0.922141	0.212344	0.602604
624	N	0.532845	0.267713	0.584158
625	H	0.548064	0.275326	0.557825
626	N	0.982481	0.24252	0.426059
627	H	0.967261	0.234911	0.452395
628	H	0.50704	0.254806	0.432837
629	C	0.69219	0.374162	0.671777
630	N	0.65661	0.356162	0.671548
631	C	0.638609	0.320583	0.671777
632	N	0.656607	0.303001	0.671548
633	C	0.692187	0.32058	0.671777
634	N	0.709766	0.356159	0.671548
635	C	0.823135	0.136054	0.671774
636	N	0.858715	0.154054	0.672003
637	C	0.876718	0.189634	0.671774
638	N	0.858717	0.207214	0.672003
639	C	0.823138	0.189636	0.671774
640	N	0.805558	0.154056	0.672003
641	C	0.804703	0.208071	0.673239
642	C	0.794704	0.218071	0.96706
643	N	0.777059	0.235715	0.970394
644	C	0.767128	0.245642	0.67508
645	C	0.776922	0.235848	0.716695
646	C	0.795561	0.217212	0.714361
647	H	0.802793	0.209979	0.743445
648	C	0.748195	0.26457	0.001805
649	C	0.738396	0.274361	0.96019
650	C	0.719758	0.292999	0.962524
651	C	0.710624	0.302146	0.003647
652	C	0.720628	0.292151	0.709825
653	N	0.738273	0.274507	0.706491
654	H	0.712522	0.300228	0.93344
655	H	0.714911	0.297879	0.740947
656	H	0.800426	0.21235	0.935939
657	N	0.745058	0.267686	0.917492
658	H	0.757334	0.2554	0.910713
659	H	0.737446	0.275292	0.891159
660	N	0.770249	0.242514	0.759393
661	H	0.77786	0.234905	0.785726
662	H	0.757963	0.254787	0.766172
663	C	0.804698	0.099185	0.673239
664	C	0.794701	0.079186	0.96706
665	N	0.777056	0.043898	0.970394
666	C	0.767129	0.024039	0.67508
667	C	0.776923	0.043626	0.716695
668	C	0.79556	0.080904	0.714361
669	H	0.802792	0.095369	0.743442
670	C	0.748199	0.486176	0.001805
671	C	0.738411	0.46659	0.96019
672	C	0.719772	0.429313	0.962524
673	C	0.710624	0.411031	0.003647
674	C	0.720617	0.43103	0.709825
675	N	0.738263	0.466318	0.706491
676	H	0.712542	0.414848	0.933443
677	H	0.71489	0.419586	0.740947
678	H	0.800422	0.090629	0.935939
679	N	0.745085	0.479926	0.917492
680	H	0.757371	0.004485	0.910713
681	H	0.737478	0.464707	0.891159
682	N	0.770257	0.03029	0.759393
683	H	0.777867	0.045509	0.785726
684	H	0.757985	0.50573	0.766172
685	C	0.913587	0.208069	0.673239
686	C	0.933585	0.218067	0.96706
687	N	0.968874	0.235712	0.970394
688	C	0.988731	0.245644	0.67508
689	C	0.969145	0.23585	0.716695
690	C	0.931867	0.217209	0.714361
691	H	0.917402	0.209977	0.743442
692	C	0.526593	0.264576	0.001805
693	C	0.546181	0.274374	0.96019
694	C	0.583458	0.293012	0.962524
695	C	0.601739	0.302146	0.003647
696	C	0.58174	0.292141	0.709825
697	N	0.546452	0.274499	0.706491
698	H	0.597925	0.300249	0.93344
699	H	0.593184	0.29786	0.740947
700	H	0.922141	0.212344	0.935939
701	N	0.532845	0.267713	0.917492
702	H	0.548064	0.275326	0.891159
703	N	0.982481	0.24252	0.759393
704	H	0.967261	0.234911	0.785726
705	H	0.50704	0.254806	0.766172
706	C	0.692191	0.874162	0.005111
707	N	0.656611	0.856162	0.004882
708	C	0.638607	0.820581	0.005111
709	N	0.656608	0.803002	0.004879
710	C	0.692188	0.820581	0.00511
711	N	0.709767	0.85616	0.004879
712	C	0.823136	0.636053	0.005105
713	N	0.858715	0.654053	0.005336
714	C	0.876717	0.689635	0.005108
715	N	0.858718	0.707214	0.005337
716	C	0.823138	0.689635	0.005108
717	N	0.805557	0.654056	0.005337
718	C	0.804703	0.708072	0.006571
719	C	0.794705	0.718072	0.300392
720	N	0.77706	0.735713	0.303727
721	C	0.767129	0.745642	0.008414
722	C	0.776922	0.735849	0.050029
723	C	0.795562	0.717211	0.047695
724	H	0.802795	0.709979	0.076777
725	C	0.748196	0.764571	0.335137
726	C	0.738398	0.774361	0.293522
727	C	0.71976	0.793	0.295856
728	C	0.710623	0.802146	0.336981
729	C	0.720627	0.792152	0.043159
730	N	0.738272	0.774508	0.039824
731	H	0.712521	0.800228	0.266774
732	H	0.71491	0.797879	0.074278
733	H	0.800427	0.71235	0.269273
734	N	0.745058	0.767684	0.250825
735	H	0.757333	0.755401	0.244047
736	H	0.737447	0.775293	0.224491
737	N	0.77025	0.742513	0.092726
738	H	0.777861	0.734905	0.11906
739	H	0.757963	0.754786	0.099504
740	C	0.804699	0.599184	0.00657
741	C	0.794702	0.579185	0.300392
742	N	0.777057	0.543897	0.303727
743	C	0.767131	0.524039	0.008414
744	C	0.776925	0.543627	0.050028
745	C	0.795561	0.580904	0.047695
746	H	0.802794	0.59537	0.076776
747	C	0.748198	0.986177	0.335137
748	C	0.738411	0.966588	0.293523
749	C	0.71977	0.929311	0.295856
750	C	0.710625	0.911031	0.336981
751	C	0.720618	0.93103	0.043159
752	N	0.738262	0.966319	0.039824
753	H	0.712542	0.914846	0.266775
754	H	0.714892	0.919587	0.074279
755	H	0.800423	0.590629	0.269272
756	N	0.745084	0.979926	0.250825
757	H	0.757369	0.504485	0.244046
758	H	0.737479	0.964707	0.224491
759	N	0.770258	0.530289	0.092726
760	H	0.777868	0.545508	0.11906
761	H	0.757984	0.005731	0.099505
762	C	0.913586	0.708069	0.00657
763	C	0.933586	0.718066	0.300392
764	N	0.968873	0.735711	0.303727
765	C	0.988733	0.745645	0.008414
766	C	0.969146	0.735849	0.050029
767	C	0.931869	0.717211	0.047695
768	H	0.917401	0.709977	0.076776
769	C	0.526594	0.764576	0.335137
770	C	0.546181	0.774374	0.293522
771	C	0.583459	0.793013	0.295856
772	C	0.601739	0.802146	0.336981
773	C	0.581741	0.792142	0.043159
774	N	0.546453	0.7745	0.039824
775	H	0.597924	0.800249	0.266775
776	H	0.593185	0.797861	0.074279
777	H	0.922142	0.712344	0.269272
778	N	0.532845	0.767713	0.250825
779	H	0.548063	0.775324	0.224491
780	N	0.98248	0.742521	0.092726
781	H	0.967262	0.73491	0.11906
782	H	0.507041	0.754807	0.099505
783	C	0.692191	0.874162	0.338446
784	N	0.656611	0.856162	0.338214
785	C	0.638607	0.820581	0.338446
786	N	0.656608	0.803002	0.338214
787	C	0.692188	0.820581	0.338443
788	N	0.709767	0.85616	0.338214
789	C	0.823136	0.636053	0.338439
790	N	0.858715	0.654053	0.338668
791	C	0.876717	0.689635	0.338439
792	N	0.858718	0.707214	0.338672
793	C	0.823138	0.689635	0.338439
794	N	0.805557	0.654056	0.338672
795	C	0.804703	0.708072	0.339904
796	C	0.794705	0.718072	0.633726
797	N	0.77706	0.735713	0.637059
798	C	0.767129	0.745642	0.341749
799	C	0.776922	0.735849	0.38336
800	C	0.795562	0.717211	0.38103
801	H	0.802795	0.709979	0.410111
802	C	0.748196	0.764571	0.66847
803	C	0.738398	0.774361	0.626856
804	C	0.71976	0.793	0.62919
805	C	0.710623	0.802146	0.670312
806	C	0.720627	0.792152	0.376491
807	N	0.738272	0.774508	0.373157
808	H	0.712521	0.800228	0.600109
809	H	0.71491	0.797879	0.407612
810	H	0.800427	0.71235	0.602608
811	N	0.745058	0.767684	0.584158
812	H	0.757333	0.755401	0.577379
813	H	0.737447	0.775293	0.557825
814	N	0.77025	0.742513	0.426059
815	H	0.777861	0.734905	0.452392
816	H	0.757963	0.754786	0.432837
817	C	0.804699	0.599184	0.339904
818	C	0.794702	0.579185	0.633726
819	N	0.777057	0.543897	0.637059
820	C	0.767131	0.524039	0.341746
821	C	0.776925	0.543627	0.38336
822	C	0.795561	0.580904	0.381027
823	H	0.802794	0.59537	0.410111
824	C	0.748198	0.986177	0.66847
825	C	0.738411	0.966588	0.626856
826	C	0.71977	0.929311	0.62919
827	C	0.710625	0.911031	0.670316
828	C	0.720618	0.93103	0.376494
829	N	0.738262	0.966319	0.373157
830	H	0.712542	0.914846	0.600109
831	H	0.714892	0.919587	0.407612
832	H	0.800423	0.590629	0.602604
833	N	0.745084	0.979926	0.584158
834	H	0.757369	0.504485	0.577379
835	H	0.737479	0.964707	0.557825
836	N	0.770258	0.530289	0.426059
837	H	0.777868	0.545508	0.452392
838	H	0.757984	0.005731	0.432837
839	C	0.913586	0.708069	0.339904
840	C	0.933586	0.718066	0.633726
841	N	0.968873	0.735711	0.637059
842	C	0.988733	0.745645	0.341749
843	C	0.969146	0.735849	0.383364
844	C	0.931869	0.717211	0.38103
845	H	0.917401	0.709977	0.410111
846	C	0.526594	0.764576	0.66847
847	C	0.546181	0.774374	0.626856
848	C	0.583459	0.793013	0.62919
849	C	0.601739	0.802146	0.670316
850	C	0.581741	0.792142	0.376494
851	N	0.546453	0.7745	0.373157
852	H	0.597924	0.800249	0.600109
853	H	0.593185	0.797861	0.407612
854	H	0.922142	0.712344	0.602604
855	N	0.532845	0.767713	0.584158
856	H	0.548063	0.775324	0.557825
857	N	0.98248	0.742521	0.426059
858	H	0.967262	0.73491	0.452395
859	H	0.507041	0.754807	0.432837
860	C	0.692191	0.874162	0.671777
861	N	0.656611	0.856162	0.671548
862	C	0.638607	0.820581	0.671777
863	N	0.656608	0.803002	0.671548
864	C	0.692188	0.820581	0.671777
865	N	0.709767	0.85616	0.671548
866	C	0.823136	0.636053	0.671774
867	N	0.858715	0.654053	0.672003
868	C	0.876717	0.689635	0.671774
869	N	0.858718	0.707214	0.672003
870	C	0.823138	0.689635	0.671774
871	N	0.805557	0.654056	0.672003
872	C	0.804703	0.708072	0.673239
873	C	0.794705	0.718072	0.96706
874	N	0.77706	0.735713	0.970394
875	C	0.767129	0.745642	0.67508
876	C	0.776922	0.735849	0.716695
877	C	0.795562	0.717211	0.714361
878	H	0.802795	0.709979	0.743445
879	C	0.748196	0.764571	0.001805
880	C	0.738398	0.774361	0.96019
881	C	0.71976	0.793	0.962524
882	C	0.710623	0.802146	0.003647
883	C	0.720627	0.792152	0.709825
884	N	0.738272	0.774508	0.706491
885	H	0.712521	0.800228	0.93344
886	H	0.71491	0.797879	0.740947
887	H	0.800427	0.71235	0.935939
888	N	0.745058	0.767684	0.917492
889	H	0.757333	0.755401	0.910713
890	H	0.737447	0.775293	0.891159
891	N	0.77025	0.742513	0.759393
892	H	0.777861	0.734905	0.785726
893	H	0.757963	0.754786	0.766172
894	C	0.804699	0.599184	0.673239
895	C	0.794702	0.579185	0.96706
896	N	0.777057	0.543897	0.970394
897	C	0.767131	0.524039	0.67508
898	C	0.776925	0.543627	0.716695
899	C	0.795561	0.580904	0.714361
900	H	0.802794	0.59537	0.743442
901	C	0.748198	0.986177	0.001805
902	C	0.738411	0.966588	0.96019
903	C	0.71977	0.929311	0.962524
904	C	0.710625	0.911031	0.003647
905	C	0.720618	0.93103	0.709825
906	N	0.738262	0.966319	0.706491
907	H	0.712542	0.914846	0.933443
908	H	0.714892	0.919587	0.740947
909	H	0.800423	0.590629	0.935939
910	N	0.745084	0.979926	0.917492
911	H	0.757369	0.504485	0.910713
912	H	0.737479	0.964707	0.891159
913	N	0.770258	0.530289	0.759393
914	H	0.777868	0.545508	0.785726
915	H	0.757984	0.005731	0.766172
916	C	0.913586	0.708069	0.673239
917	C	0.933586	0.718066	0.96706
918	N	0.968873	0.735711	0.970394
919	C	0.988733	0.745645	0.67508
920	C	0.969146	0.735849	0.716695
921	C	0.931869	0.717211	0.714361
922	H	0.917401	0.709977	0.743442
923	C	0.526594	0.764576	0.001805
924	C	0.546181	0.774374	0.96019
925	C	0.583459	0.793013	0.962524
926	C	0.601739	0.802146	0.003647
927	C	0.581741	0.792142	0.709825
928	N	0.546453	0.7745	0.706491
929	H	0.597924	0.800249	0.93344
930	H	0.593185	0.797861	0.740947
931	H	0.922142	0.712344	0.935939
932	N	0.532845	0.767713	0.917492
933	H	0.548063	0.775324	0.891159
934	N	0.98248	0.742521	0.759393
935	H	0.967262	0.73491	0.785726
936	H	0.507041	0.754807	0.766172
