data_C396H288N144O72_2018-02-15_10:32:48
#******************************************
#
# CIF file created by Zeo++
# Zeo++ is an open source package to
# analyze microporous materials
#
#*******************************************

_cell_length_a		43.6072   
_cell_length_b		43.6072   
_cell_length_c		30.0956   
_cell_angle_alpha		90   
_cell_angle_beta		90   
_cell_angle_gamma		120   

_symmetry_space_group_name_H-M		'P1'
_symmetry_Int_Tables_number		1
_symmetry_cell_setting		Monoclinic

loop_
_symmetry_equiv_pos_as_xyz
'+x,+y,+z'

loop_
_atom_site_label
_atom_site_type_symbol
_atom_site_fract_x
_atom_site_fract_y
_atom_site_fract_z
1	C	0.175158	0.368726	0.957168
2	C	0.138905	0.342302	0.956726
3	C	0.127277	0.30562	0.957105
4	C	0.15371	0.295798	0.956693
5	C	0.190394	0.320853	0.29044
6	C	0.200225	0.357112	0.956663
7	H	0.145827	0.26957	0.959454
8	H	0.226444	0.375446	0.959537
9	H	0.120561	0.350182	0.959507
10	C	0.185404	0.404899	0.963807
11	C	0.216331	0.310619	0.297065
12	C	0.091105	0.27968	0.963714
13	O	0.249677	0.336182	0.974709
14	O	0.159847	0.412674	0.974851
15	O	0.083323	0.246336	0.974705
16	C	0.32001	0.128003	0.046455
17	C	0.356256	0.154486	0.046616
18	C	0.368049	0.19123	0.046514
19	C	0.341557	0.200988	0.04665
20	C	0.304812	0.176039	0.37988
21	C	0.295054	0.13979	0.046639
22	H	0.349508	0.2272	0.043931
23	H	0.268841	0.121534	0.043902
24	H	0.374518	0.146539	0.043817
25	C	0.309895	0.091653	0.04131
26	C	0.278567	0.186144	0.37476
27	C	0.404395	0.21747	0.04135
28	O	0.244205	0.160107	0.03828
29	O	0.335931	0.083321	0.038205
30	O	0.412724	0.251837	0.038258
31	C	0.273734	0.269295	0.031651
32	C	0.265846	0.233897	0.023019
33	C	0.238806	0.215209	0.324441
34	N	0.221592	0.230133	0.304635
35	C	0.229344	0.263742	0.313404
36	N	0.2552	0.282272	0.010298
37	H	0.232541	0.190642	0.313607
38	C	0.300588	0.293404	0.064034
39	H	0.294744	0.28111	0.096856
40	H	0.30093	0.318563	0.066723
41	H	0.326898	0.299111	0.053674
42	N	0.285213	0.220277	0.041708
43	H	0.306504	0.237031	0.057216
44	N	0.209907	0.276659	0.294206
45	H	0.189435	0.259723	0.277161
46	C	0.226762	0.003644	0.031684
47	C	0.262145	0.03116	0.022996
48	C	0.280817	0.022801	0.324401
49	N	0.265887	0.490651	0.304622
50	C	0.232294	0.464791	0.313448
51	N	0.213776	0.472123	0.010351
52	H	0.305369	0.041111	0.313533
53	C	0.202662	0.006406	0.064066
54	H	0.214973	0.012889	0.096879
55	H	0.177509	0.981588	0.066791
56	H	0.196943	0.026996	0.053681
57	N	0.275768	0.064158	0.041654
58	H	0.259021	0.068698	0.057173
59	N	0.219359	0.432436	0.29424
60	H	0.236282	0.428898	0.277168
61	C	0.492391	0.222317	0.031659
62	C	0.464881	0.230204	0.023019
63	C	0.473231	0.257228	0.324415
64	N	0.005369	0.274437	0.304608
65	C	0.031226	0.266692	0.313402
66	N	0.023901	0.240839	0.010298
67	H	0.45492	0.263479	0.313571
68	C	0.489631	0.195446	0.064026
69	H	0.483173	0.201281	0.096851
70	H	0.514445	0.195097	0.066718
71	H	0.469024	0.169144	0.053649
72	N	0.431886	0.210833	0.041682
73	H	0.427346	0.189546	0.057204
74	N	0.063573	0.286107	0.294177
75	H	0.067113	0.306575	0.277121
76	C	0.175158	0.368726	0.290501
77	C	0.138905	0.342302	0.29006
78	C	0.127277	0.30562	0.290438
79	C	0.15371	0.295798	0.290028
80	C	0.190394	0.320853	0.623773
81	C	0.200225	0.357112	0.289996
82	H	0.145827	0.26957	0.292787
83	H	0.226444	0.375446	0.292869
84	H	0.120561	0.350182	0.292843
85	C	0.185404	0.404899	0.29714
86	C	0.216331	0.310619	0.630399
87	C	0.091105	0.27968	0.297047
88	O	0.249677	0.336182	0.308044
89	O	0.159847	0.412674	0.308187
90	O	0.083323	0.246336	0.30804
91	C	0.32001	0.128003	0.379787
92	C	0.356256	0.154486	0.37995
93	C	0.368049	0.19123	0.379847
94	C	0.341557	0.200988	0.379983
95	C	0.304812	0.176039	0.713212
96	C	0.295054	0.13979	0.379973
97	H	0.349508	0.2272	0.377265
98	H	0.268841	0.121534	0.377235
99	H	0.374518	0.146539	0.377149
100	C	0.309895	0.091653	0.374643
101	C	0.278567	0.186144	0.708094
102	C	0.404395	0.21747	0.374683
103	O	0.244205	0.160107	0.371613
104	O	0.335931	0.083321	0.371537
105	O	0.412724	0.251837	0.37159
106	C	0.273734	0.269295	0.364984
107	C	0.265846	0.233897	0.356352
108	C	0.238806	0.215209	0.657775
109	N	0.221592	0.230133	0.637968
110	C	0.229344	0.263742	0.646737
111	N	0.2552	0.282272	0.343632
112	H	0.232541	0.190642	0.646939
113	C	0.300588	0.293404	0.397368
114	H	0.294744	0.28111	0.43019
115	H	0.30093	0.318563	0.400056
116	H	0.326898	0.299111	0.387007
117	N	0.285213	0.220277	0.375042
118	H	0.306504	0.237031	0.390549
119	N	0.209907	0.276659	0.627538
120	H	0.189435	0.259723	0.610495
121	C	0.226762	0.003644	0.365017
122	C	0.262145	0.03116	0.356328
123	C	0.280817	0.022801	0.657735
124	N	0.265887	0.490651	0.637955
125	C	0.232294	0.464791	0.64678
126	N	0.213776	0.472123	0.343682
127	H	0.305369	0.041111	0.646866
128	C	0.202662	0.006406	0.397397
129	H	0.214973	0.012889	0.430213
130	H	0.177509	0.981588	0.400122
131	H	0.196943	0.026996	0.387014
132	N	0.275768	0.064158	0.374986
133	H	0.259021	0.068698	0.390506
134	N	0.219359	0.432436	0.627574
135	H	0.236282	0.428898	0.610502
136	C	0.492391	0.222317	0.364991
137	C	0.464881	0.230204	0.356352
138	C	0.473231	0.257228	0.657748
139	N	0.005369	0.274437	0.637941
140	C	0.031226	0.266692	0.646733
141	N	0.023901	0.240839	0.343632
142	H	0.45492	0.263479	0.646903
143	C	0.489631	0.195446	0.397358
144	H	0.483173	0.201281	0.430183
145	H	0.514445	0.195097	0.400052
146	H	0.469024	0.169144	0.386984
147	N	0.431886	0.210833	0.375015
148	H	0.427346	0.189546	0.390536
149	N	0.063573	0.286107	0.627511
150	H	0.067113	0.306575	0.610452
151	C	0.175158	0.368726	0.623833
152	C	0.138905	0.342302	0.623394
153	C	0.127277	0.30562	0.62377
154	C	0.15371	0.295798	0.623361
155	C	0.190394	0.320853	0.957105
156	C	0.200225	0.357112	0.623328
157	H	0.145827	0.26957	0.626119
158	H	0.226444	0.375446	0.626202
159	H	0.120561	0.350182	0.626175
160	C	0.185404	0.404899	0.630472
161	C	0.216331	0.310619	0.96373
162	C	0.091105	0.27968	0.630379
163	O	0.249677	0.336182	0.641377
164	O	0.159847	0.412674	0.64152
165	O	0.083323	0.246336	0.641374
166	C	0.32001	0.128003	0.713122
167	C	0.356256	0.154486	0.713281
168	C	0.368049	0.19123	0.713178
169	C	0.341557	0.200988	0.713315
170	C	0.304812	0.176039	0.046547
171	C	0.295054	0.13979	0.713305
172	H	0.349508	0.2272	0.710597
173	H	0.268841	0.121534	0.71057
174	H	0.374518	0.146539	0.710484
175	C	0.309895	0.091653	0.707975
176	C	0.278567	0.186144	0.041427
177	C	0.404395	0.21747	0.708015
178	O	0.244205	0.160107	0.704945
179	O	0.335931	0.083321	0.704871
180	O	0.412724	0.251837	0.704925
181	C	0.273734	0.269295	0.698316
182	C	0.265846	0.233897	0.689683
183	C	0.238806	0.215209	0.991106
184	N	0.221592	0.230133	0.971299
185	C	0.229344	0.263742	0.980071
186	N	0.2552	0.282272	0.676964
187	H	0.232541	0.190642	0.980274
188	C	0.300588	0.293404	0.730699
189	H	0.294744	0.28111	0.763521
190	H	0.30093	0.318563	0.733391
191	H	0.326898	0.299111	0.720339
192	N	0.285213	0.220277	0.708374
193	H	0.306504	0.237031	0.723881
194	N	0.209907	0.276659	0.960873
195	H	0.189435	0.259723	0.943827
196	C	0.226762	0.003644	0.698349
197	C	0.262145	0.03116	0.689663
198	C	0.280817	0.022801	0.991066
199	N	0.265887	0.490651	0.971286
200	C	0.232294	0.464791	0.980115
201	N	0.213776	0.472123	0.677017
202	H	0.305369	0.041111	0.980198
203	C	0.202662	0.006406	0.730732
204	H	0.214973	0.012889	0.763545
205	H	0.177509	0.981588	0.733457
206	H	0.196943	0.026996	0.720345
207	N	0.275768	0.064158	0.70832
208	H	0.259021	0.068698	0.723838
209	N	0.219359	0.432436	0.960906
210	H	0.236282	0.428898	0.943834
211	C	0.492391	0.222317	0.698326
212	C	0.464881	0.230204	0.689686
213	C	0.473231	0.257228	0.99108
214	N	0.005369	0.274437	0.971273
215	C	0.031226	0.266692	0.980068
216	N	0.023901	0.240839	0.676964
217	H	0.45492	0.263479	0.980238
218	C	0.489631	0.195446	0.730693
219	H	0.483173	0.201281	0.763518
220	H	0.514445	0.195097	0.733384
221	H	0.469024	0.169144	0.720316
222	N	0.431886	0.210833	0.708347
223	H	0.427346	0.189546	0.723871
224	N	0.063573	0.286107	0.960843
225	H	0.067113	0.306575	0.943787
226	C	0.175158	0.868727	0.957168
227	C	0.138904	0.842303	0.956726
228	C	0.127276	0.805618	0.957105
229	C	0.153709	0.795797	0.956693
230	C	0.190394	0.820854	0.29044
231	C	0.200225	0.857113	0.956663
232	H	0.145827	0.769571	0.959454
233	H	0.226444	0.875447	0.959537
234	H	0.120561	0.850183	0.959507
235	C	0.185405	0.9049	0.963807
236	C	0.216331	0.810617	0.297065
237	C	0.091104	0.779678	0.963714
238	O	0.249678	0.836183	0.974709
239	O	0.159847	0.912675	0.974851
240	O	0.083323	0.746335	0.974705
241	C	0.320009	0.628003	0.046455
242	C	0.356257	0.654486	0.046616
243	C	0.368048	0.691229	0.046514
244	C	0.341559	0.700989	0.04665
245	C	0.304812	0.67604	0.37988
246	C	0.295053	0.639789	0.046639
247	H	0.34951	0.727201	0.043931
248	H	0.268841	0.621534	0.043902
249	H	0.374517	0.646539	0.043817
250	C	0.309895	0.591652	0.04131
251	C	0.278567	0.686145	0.37476
252	C	0.404394	0.71747	0.04135
253	O	0.244205	0.660107	0.03828
254	O	0.335931	0.583322	0.038205
255	O	0.412725	0.751838	0.038258
256	C	0.273735	0.769296	0.031651
257	C	0.265847	0.733898	0.023019
258	C	0.238806	0.715209	0.324441
259	N	0.221591	0.730132	0.304635
260	C	0.229345	0.763743	0.313404
261	N	0.2552	0.782273	0.010298
262	H	0.232542	0.690643	0.313607
263	C	0.300589	0.793405	0.064034
264	H	0.294744	0.781108	0.096856
265	H	0.30093	0.818564	0.066723
266	H	0.326897	0.799109	0.053674
267	N	0.285213	0.720277	0.041708
268	H	0.306504	0.73703	0.057216
269	N	0.209907	0.77666	0.294206
270	H	0.189435	0.759723	0.277161
271	C	0.226762	0.503645	0.031684
272	C	0.262145	0.531159	0.022996
273	C	0.280818	0.522802	0.324401
274	N	0.265887	0.990652	0.304622
275	C	0.232295	0.964792	0.313448
276	N	0.213777	0.972124	0.010351
277	H	0.305369	0.54111	0.313533
278	C	0.202662	0.506406	0.064066
279	H	0.214973	0.512889	0.096879
280	H	0.177509	0.481587	0.066791
281	H	0.196944	0.526997	0.053681
282	N	0.275768	0.564158	0.041654
283	H	0.259021	0.5687	0.057173
284	N	0.21936	0.932436	0.29424
285	H	0.236283	0.928899	0.277168
286	C	0.492392	0.722318	0.031659
287	C	0.464882	0.730204	0.023019
288	C	0.473231	0.757229	0.324415
289	N	0.005368	0.774435	0.304608
290	C	0.031226	0.766693	0.313402
291	N	0.023901	0.740838	0.010298
292	H	0.454921	0.763478	0.313571
293	C	0.489631	0.695447	0.064026
294	H	0.483174	0.70128	0.096851
295	H	0.514445	0.695097	0.066718
296	H	0.469026	0.669145	0.053649
297	N	0.431886	0.710834	0.041682
298	H	0.427347	0.689547	0.057204
299	N	0.063574	0.786108	0.294177
300	H	0.067112	0.806576	0.277121
301	C	0.175158	0.868727	0.290501
302	C	0.138904	0.842303	0.29006
303	C	0.127276	0.805618	0.290438
304	C	0.153709	0.795797	0.290028
305	C	0.190394	0.820854	0.623773
306	C	0.200225	0.857113	0.289996
307	H	0.145827	0.769571	0.292787
308	H	0.226444	0.875447	0.292869
309	H	0.120561	0.850183	0.292843
310	C	0.185405	0.9049	0.29714
311	C	0.216331	0.810617	0.630399
312	C	0.091104	0.779678	0.297047
313	O	0.249678	0.836183	0.308044
314	O	0.159847	0.912675	0.308187
315	O	0.083323	0.746335	0.30804
316	C	0.320009	0.628003	0.379787
317	C	0.356257	0.654486	0.37995
318	C	0.368048	0.691229	0.379847
319	C	0.341559	0.700989	0.379983
320	C	0.304812	0.67604	0.713212
321	C	0.295053	0.639789	0.379973
322	H	0.34951	0.727201	0.377265
323	H	0.268841	0.621534	0.377235
324	H	0.374517	0.646539	0.377149
325	C	0.309895	0.591652	0.374643
326	C	0.278567	0.686145	0.708094
327	C	0.404394	0.71747	0.374683
328	O	0.244205	0.660107	0.371613
329	O	0.335931	0.583322	0.371537
330	O	0.412725	0.751838	0.37159
331	C	0.273735	0.769296	0.364984
332	C	0.265847	0.733898	0.356352
333	C	0.238806	0.715209	0.657775
334	N	0.221591	0.730132	0.637968
335	C	0.229345	0.763743	0.646737
336	N	0.2552	0.782273	0.343632
337	H	0.232542	0.690643	0.646939
338	C	0.300589	0.793405	0.397368
339	H	0.294744	0.781108	0.43019
340	H	0.30093	0.818564	0.400056
341	H	0.326897	0.799109	0.387007
342	N	0.285213	0.720277	0.375042
343	H	0.306504	0.73703	0.390549
344	N	0.209907	0.77666	0.627538
345	H	0.189435	0.759723	0.610495
346	C	0.226762	0.503645	0.365017
347	C	0.262145	0.531159	0.356328
348	C	0.280818	0.522802	0.657735
349	N	0.265887	0.990652	0.637955
350	C	0.232295	0.964792	0.64678
351	N	0.213777	0.972124	0.343682
352	H	0.305369	0.54111	0.646866
353	C	0.202662	0.506406	0.397397
354	H	0.214973	0.512889	0.430213
355	H	0.177509	0.481587	0.400122
356	H	0.196944	0.526997	0.387014
357	N	0.275768	0.564158	0.374986
358	H	0.259021	0.5687	0.390506
359	N	0.21936	0.932436	0.627574
360	H	0.236283	0.928899	0.610502
361	C	0.492392	0.722318	0.364991
362	C	0.464882	0.730204	0.356352
363	C	0.473231	0.757229	0.657748
364	N	0.005368	0.774435	0.637941
365	C	0.031226	0.766693	0.646733
366	N	0.023901	0.740838	0.343632
367	H	0.454921	0.763478	0.646903
368	C	0.489631	0.695447	0.397358
369	H	0.483174	0.70128	0.430183
370	H	0.514445	0.695097	0.400052
371	H	0.469026	0.669145	0.386984
372	N	0.431886	0.710834	0.375015
373	H	0.427347	0.689547	0.390536
374	N	0.063574	0.786108	0.627511
375	H	0.067112	0.806576	0.610452
376	C	0.175158	0.868727	0.623833
377	C	0.138904	0.842303	0.623394
378	C	0.127276	0.805618	0.62377
379	C	0.153709	0.795797	0.623361
380	C	0.190394	0.820854	0.957105
381	C	0.200225	0.857113	0.623328
382	H	0.145827	0.769571	0.626119
383	H	0.226444	0.875447	0.626202
384	H	0.120561	0.850183	0.626175
385	C	0.185405	0.9049	0.630472
386	C	0.216331	0.810617	0.96373
387	C	0.091104	0.779678	0.630379
388	O	0.249678	0.836183	0.641377
389	O	0.159847	0.912675	0.64152
390	O	0.083323	0.746335	0.641374
391	C	0.320009	0.628003	0.713122
392	C	0.356257	0.654486	0.713281
393	C	0.368048	0.691229	0.713178
394	C	0.341559	0.700989	0.713315
395	C	0.304812	0.67604	0.046547
396	C	0.295053	0.639789	0.713305
397	H	0.34951	0.727201	0.710597
398	H	0.268841	0.621534	0.71057
399	H	0.374517	0.646539	0.710484
400	C	0.309895	0.591652	0.707975
401	C	0.278567	0.686145	0.041427
402	C	0.404394	0.71747	0.708015
403	O	0.244205	0.660107	0.704945
404	O	0.335931	0.583322	0.704871
405	O	0.412725	0.751838	0.704925
406	C	0.273735	0.769296	0.698316
407	C	0.265847	0.733898	0.689683
408	C	0.238806	0.715209	0.991106
409	N	0.221591	0.730132	0.971299
410	C	0.229345	0.763743	0.980071
411	N	0.2552	0.782273	0.676964
412	H	0.232542	0.690643	0.980274
413	C	0.300589	0.793405	0.730699
414	H	0.294744	0.781108	0.763521
415	H	0.30093	0.818564	0.733391
416	H	0.326897	0.799109	0.720339
417	N	0.285213	0.720277	0.708374
418	H	0.306504	0.73703	0.723881
419	N	0.209907	0.77666	0.960873
420	H	0.189435	0.759723	0.943827
421	C	0.226762	0.503645	0.698349
422	C	0.262145	0.531159	0.689663
423	C	0.280818	0.522802	0.991066
424	N	0.265887	0.990652	0.971286
425	C	0.232295	0.964792	0.980115
426	N	0.213777	0.972124	0.677017
427	H	0.305369	0.54111	0.980198
428	C	0.202662	0.506406	0.730732
429	H	0.214973	0.512889	0.763545
430	H	0.177509	0.481587	0.733457
431	H	0.196944	0.526997	0.720345
432	N	0.275768	0.564158	0.70832
433	H	0.259021	0.5687	0.723838
434	N	0.21936	0.932436	0.960906
435	H	0.236283	0.928899	0.943834
436	C	0.492392	0.722318	0.698326
437	C	0.464882	0.730204	0.689686
438	C	0.473231	0.757229	0.99108
439	N	0.005368	0.774435	0.971273
440	C	0.031226	0.766693	0.980068
441	N	0.023901	0.740838	0.676964
442	H	0.454921	0.763478	0.980238
443	C	0.489631	0.695447	0.730693
444	H	0.483174	0.70128	0.763518
445	H	0.514445	0.695097	0.733384
446	H	0.469026	0.669145	0.720316
447	N	0.431886	0.710834	0.708347
448	H	0.427347	0.689547	0.723871
449	N	0.063574	0.786108	0.960843
450	H	0.067112	0.806576	0.943787
451	C	0.675158	0.368726	0.957168
452	C	0.638904	0.342302	0.956726
453	C	0.627277	0.30562	0.957105
454	C	0.65371	0.295798	0.956693
455	C	0.690394	0.320853	0.29044
456	C	0.700224	0.357112	0.956663
457	H	0.645827	0.26957	0.959454
458	H	0.726444	0.375446	0.959537
459	H	0.620561	0.350182	0.959507
460	C	0.685404	0.404899	0.963807
461	C	0.716331	0.310619	0.297065
462	C	0.591105	0.27968	0.963714
463	O	0.749676	0.336182	0.974709
464	O	0.659847	0.412674	0.974851
465	O	0.583324	0.246336	0.974705
466	C	0.82001	0.128003	0.046455
467	C	0.856256	0.154486	0.046616
468	C	0.868049	0.19123	0.046514
469	C	0.841557	0.200988	0.04665
470	C	0.804812	0.176039	0.37988
471	C	0.795053	0.13979	0.046639
472	H	0.849508	0.2272	0.043931
473	H	0.76884	0.121534	0.043902
474	H	0.874518	0.146539	0.043817
475	C	0.809895	0.091653	0.04131
476	C	0.778567	0.186144	0.37476
477	C	0.904395	0.21747	0.04135
478	O	0.744205	0.160107	0.03828
479	O	0.835931	0.083321	0.038205
480	O	0.912724	0.251837	0.038258
481	C	0.773735	0.269295	0.031651
482	C	0.765846	0.233897	0.023019
483	C	0.738805	0.215209	0.324441
484	N	0.72159	0.230133	0.304635
485	C	0.729343	0.263742	0.313404
486	N	0.7552	0.282272	0.010298
487	H	0.732542	0.190642	0.313607
488	C	0.800587	0.293404	0.064034
489	H	0.794745	0.28111	0.096856
490	H	0.80093	0.318563	0.066723
491	H	0.826898	0.299111	0.053674
492	N	0.785213	0.220277	0.041708
493	H	0.806505	0.237031	0.057216
494	N	0.709907	0.276659	0.294206
495	H	0.689434	0.259723	0.277161
496	C	0.726762	0.003644	0.031684
497	C	0.762145	0.03116	0.022996
498	C	0.780817	0.022801	0.324401
499	N	0.765886	0.490651	0.304622
500	C	0.732295	0.464791	0.313448
501	N	0.713776	0.472123	0.010351
502	H	0.805369	0.041111	0.313533
503	C	0.702661	0.006406	0.064066
504	H	0.714974	0.012889	0.096879
505	H	0.677509	0.981588	0.066791
506	H	0.696943	0.026996	0.053681
507	N	0.775768	0.064158	0.041654
508	H	0.759021	0.068698	0.057173
509	N	0.719359	0.432436	0.29424
510	H	0.736283	0.428898	0.277168
511	C	0.992391	0.222317	0.031659
512	C	0.964881	0.230204	0.023019
513	C	0.973231	0.257228	0.324415
514	N	0.505369	0.274437	0.304608
515	C	0.531225	0.266692	0.313402
516	N	0.523901	0.240839	0.010298
517	H	0.95492	0.263479	0.313571
518	C	0.989631	0.195446	0.064026
519	H	0.983176	0.201281	0.096851
520	H	0.014445	0.195097	0.066718
521	H	0.969024	0.169144	0.053649
522	N	0.931886	0.210833	0.041682
523	H	0.927346	0.189546	0.057204
524	N	0.563573	0.286107	0.294177
525	H	0.567114	0.306575	0.277121
526	C	0.675158	0.368726	0.290501
527	C	0.638904	0.342302	0.29006
528	C	0.627277	0.30562	0.290438
529	C	0.65371	0.295798	0.290028
530	C	0.690394	0.320853	0.623773
531	C	0.700224	0.357112	0.289996
532	H	0.645827	0.26957	0.292787
533	H	0.726444	0.375446	0.292869
534	H	0.620561	0.350182	0.292843
535	C	0.685404	0.404899	0.29714
536	C	0.716331	0.310619	0.630399
537	C	0.591105	0.27968	0.297047
538	O	0.749676	0.336182	0.308044
539	O	0.659847	0.412674	0.308187
540	O	0.583324	0.246336	0.30804
541	C	0.82001	0.128003	0.379787
542	C	0.856256	0.154486	0.37995
543	C	0.868049	0.19123	0.379847
544	C	0.841557	0.200988	0.379983
545	C	0.804812	0.176039	0.713212
546	C	0.795053	0.13979	0.379973
547	H	0.849508	0.2272	0.377265
548	H	0.76884	0.121534	0.377235
549	H	0.874518	0.146539	0.377149
550	C	0.809895	0.091653	0.374643
551	C	0.778567	0.186144	0.708094
552	C	0.904395	0.21747	0.374683
553	O	0.744205	0.160107	0.371613
554	O	0.835931	0.083321	0.371537
555	O	0.912724	0.251837	0.37159
556	C	0.773735	0.269295	0.364984
557	C	0.765846	0.233897	0.356352
558	C	0.738805	0.215209	0.657775
559	N	0.72159	0.230133	0.637968
560	C	0.729343	0.263742	0.646737
561	N	0.7552	0.282272	0.343632
562	H	0.732542	0.190642	0.646939
563	C	0.800587	0.293404	0.397368
564	H	0.794745	0.28111	0.43019
565	H	0.80093	0.318563	0.400056
566	H	0.826898	0.299111	0.387007
567	N	0.785213	0.220277	0.375042
568	H	0.806505	0.237031	0.390549
569	N	0.709907	0.276659	0.627538
570	H	0.689434	0.259723	0.610495
571	C	0.726762	0.003644	0.365017
572	C	0.762145	0.03116	0.356328
573	C	0.780817	0.022801	0.657735
574	N	0.765886	0.490651	0.637955
575	C	0.732295	0.464791	0.64678
576	N	0.713776	0.472123	0.343682
577	H	0.805369	0.041111	0.646866
578	C	0.702661	0.006406	0.397397
579	H	0.714974	0.012889	0.430213
580	H	0.677509	0.981588	0.400122
581	H	0.696943	0.026996	0.387014
582	N	0.775768	0.064158	0.374986
583	H	0.759021	0.068698	0.390506
584	N	0.719359	0.432436	0.627574
585	H	0.736283	0.428898	0.610502
586	C	0.992391	0.222317	0.364991
587	C	0.964881	0.230204	0.356352
588	C	0.973231	0.257228	0.657748
589	N	0.505369	0.274437	0.637941
590	C	0.531225	0.266692	0.646733
591	N	0.523901	0.240839	0.343632
592	H	0.95492	0.263479	0.646903
593	C	0.989631	0.195446	0.397358
594	H	0.983176	0.201281	0.430183
595	H	0.014445	0.195097	0.400052
596	H	0.969024	0.169144	0.386984
597	N	0.931886	0.210833	0.375015
598	H	0.927346	0.189546	0.390536
599	N	0.563573	0.286107	0.627511
600	H	0.567114	0.306575	0.610452
601	C	0.675158	0.368726	0.623833
602	C	0.638904	0.342302	0.623394
603	C	0.627277	0.30562	0.62377
604	C	0.65371	0.295798	0.623361
605	C	0.690394	0.320853	0.957105
606	C	0.700224	0.357112	0.623328
607	H	0.645827	0.26957	0.626119
608	H	0.726444	0.375446	0.626202
609	H	0.620561	0.350182	0.626175
610	C	0.685404	0.404899	0.630472
611	C	0.716331	0.310619	0.96373
612	C	0.591105	0.27968	0.630379
613	O	0.749676	0.336182	0.641377
614	O	0.659847	0.412674	0.64152
615	O	0.583324	0.246336	0.641374
616	C	0.82001	0.128003	0.713122
617	C	0.856256	0.154486	0.713281
618	C	0.868049	0.19123	0.713178
619	C	0.841557	0.200988	0.713315
620	C	0.804812	0.176039	0.046547
621	C	0.795053	0.13979	0.713305
622	H	0.849508	0.2272	0.710597
623	H	0.76884	0.121534	0.71057
624	H	0.874518	0.146539	0.710484
625	C	0.809895	0.091653	0.707975
626	C	0.778567	0.186144	0.041427
627	C	0.904395	0.21747	0.708015
628	O	0.744205	0.160107	0.704945
629	O	0.835931	0.083321	0.704871
630	O	0.912724	0.251837	0.704925
631	C	0.773735	0.269295	0.698316
632	C	0.765846	0.233897	0.689683
633	C	0.738805	0.215209	0.991106
634	N	0.72159	0.230133	0.971299
635	C	0.729343	0.263742	0.980071
636	N	0.7552	0.282272	0.676964
637	H	0.732542	0.190642	0.980274
638	C	0.800587	0.293404	0.730699
639	H	0.794745	0.28111	0.763521
640	H	0.80093	0.318563	0.733391
641	H	0.826898	0.299111	0.720339
642	N	0.785213	0.220277	0.708374
643	H	0.806505	0.237031	0.723881
644	N	0.709907	0.276659	0.960873
645	H	0.689434	0.259723	0.943827
646	C	0.726762	0.003644	0.698349
647	C	0.762145	0.03116	0.689663
648	C	0.780817	0.022801	0.991066
649	N	0.765886	0.490651	0.971286
650	C	0.732295	0.464791	0.980115
651	N	0.713776	0.472123	0.677017
652	H	0.805369	0.041111	0.980198
653	C	0.702661	0.006406	0.730732
654	H	0.714974	0.012889	0.763545
655	H	0.677509	0.981588	0.733457
656	H	0.696943	0.026996	0.720345
657	N	0.775768	0.064158	0.70832
658	H	0.759021	0.068698	0.723838
659	N	0.719359	0.432436	0.960906
660	H	0.736283	0.428898	0.943834
661	C	0.992391	0.222317	0.698326
662	C	0.964881	0.230204	0.689686
663	C	0.973231	0.257228	0.99108
664	N	0.505369	0.274437	0.971273
665	C	0.531225	0.266692	0.980068
666	N	0.523901	0.240839	0.676964
667	H	0.95492	0.263479	0.980238
668	C	0.989631	0.195446	0.730693
669	H	0.983176	0.201281	0.763518
670	H	0.014445	0.195097	0.733384
671	H	0.969024	0.169144	0.720316
672	N	0.931886	0.210833	0.708347
673	H	0.927346	0.189546	0.723871
674	N	0.563573	0.286107	0.960843
675	H	0.567114	0.306575	0.943787
676	C	0.675158	0.868727	0.957168
677	C	0.638905	0.842303	0.956726
678	C	0.627276	0.805618	0.957105
679	C	0.653709	0.795797	0.956693
680	C	0.690395	0.820854	0.29044
681	C	0.700225	0.857113	0.956663
682	H	0.645827	0.769571	0.959454
683	H	0.726444	0.875447	0.959537
684	H	0.620561	0.850183	0.959507
685	C	0.685405	0.9049	0.963807
686	C	0.716331	0.810617	0.297065
687	C	0.591104	0.779678	0.963714
688	O	0.749677	0.836183	0.974709
689	O	0.659847	0.912675	0.974851
690	O	0.583323	0.746335	0.974705
691	C	0.82001	0.628003	0.046455
692	C	0.856256	0.654486	0.046616
693	C	0.868049	0.691229	0.046514
694	C	0.841558	0.700989	0.04665
695	C	0.804812	0.67604	0.37988
696	C	0.795052	0.639789	0.046639
697	H	0.849509	0.727201	0.043931
698	H	0.768841	0.621534	0.043902
699	H	0.874518	0.646539	0.043817
700	C	0.809895	0.591652	0.04131
701	C	0.778567	0.686145	0.37476
702	C	0.904395	0.71747	0.04135
703	O	0.744205	0.660107	0.03828
704	O	0.835931	0.583322	0.038205
705	O	0.912725	0.751838	0.038258
706	C	0.773735	0.769296	0.031651
707	C	0.765846	0.733898	0.023019
708	C	0.738805	0.715209	0.324441
709	N	0.72159	0.730132	0.304635
710	C	0.729344	0.763743	0.313404
711	N	0.7552	0.782273	0.010298
712	H	0.732542	0.690643	0.313607
713	C	0.800588	0.793405	0.064034
714	H	0.794744	0.781108	0.096856
715	H	0.80093	0.818564	0.066723
716	H	0.826897	0.799109	0.053674
717	N	0.785213	0.720277	0.041708
718	H	0.806505	0.73703	0.057216
719	N	0.709907	0.77666	0.294206
720	H	0.689434	0.759723	0.277161
721	C	0.726762	0.503645	0.031684
722	C	0.762145	0.531159	0.022996
723	C	0.780818	0.522802	0.324401
724	N	0.765887	0.990652	0.304622
725	C	0.732295	0.964792	0.313448
726	N	0.713776	0.972124	0.010351
727	H	0.805368	0.54111	0.313533
728	C	0.702661	0.506406	0.064066
729	H	0.714974	0.512889	0.096879
730	H	0.677508	0.481587	0.066791
731	H	0.696943	0.526997	0.053681
732	N	0.775768	0.564158	0.041654
733	H	0.759021	0.5687	0.057173
734	N	0.71936	0.932436	0.29424
735	H	0.736283	0.928899	0.277168
736	C	0.992392	0.722318	0.031659
737	C	0.964881	0.730204	0.023019
738	C	0.973232	0.757229	0.324415
739	N	0.505368	0.774435	0.304608
740	C	0.531227	0.766693	0.313402
741	N	0.5239	0.740838	0.010298
742	H	0.95492	0.763478	0.313571
743	C	0.989631	0.695447	0.064026
744	H	0.983173	0.70128	0.096851
745	H	0.014445	0.695097	0.066718
746	H	0.969025	0.669145	0.053649
747	N	0.931886	0.710834	0.041682
748	H	0.927347	0.689547	0.057204
749	N	0.563574	0.786108	0.294177
750	H	0.567113	0.806576	0.277121
751	C	0.675158	0.868727	0.290501
752	C	0.638905	0.842303	0.29006
753	C	0.627276	0.805618	0.290438
754	C	0.653709	0.795797	0.290028
755	C	0.690395	0.820854	0.623773
756	C	0.700225	0.857113	0.289996
757	H	0.645827	0.769571	0.292787
758	H	0.726444	0.875447	0.292869
759	H	0.620561	0.850183	0.292843
760	C	0.685405	0.9049	0.29714
761	C	0.716331	0.810617	0.630399
762	C	0.591104	0.779678	0.297047
763	O	0.749677	0.836183	0.308044
764	O	0.659847	0.912675	0.308187
765	O	0.583323	0.746335	0.30804
766	C	0.82001	0.628003	0.379787
767	C	0.856256	0.654486	0.37995
768	C	0.868049	0.691229	0.379847
769	C	0.841558	0.700989	0.379983
770	C	0.804812	0.67604	0.713212
771	C	0.795052	0.639789	0.379973
772	H	0.849509	0.727201	0.377265
773	H	0.768841	0.621534	0.377235
774	H	0.874518	0.646539	0.377149
775	C	0.809895	0.591652	0.374643
776	C	0.778567	0.686145	0.708094
777	C	0.904395	0.71747	0.374683
778	O	0.744205	0.660107	0.371613
779	O	0.835931	0.583322	0.371537
780	O	0.912725	0.751838	0.37159
781	C	0.773735	0.769296	0.364984
782	C	0.765846	0.733898	0.356352
783	C	0.738805	0.715209	0.657775
784	N	0.72159	0.730132	0.637968
785	C	0.729344	0.763743	0.646737
786	N	0.7552	0.782273	0.343632
787	H	0.732542	0.690643	0.646939
788	C	0.800588	0.793405	0.397368
789	H	0.794744	0.781108	0.43019
790	H	0.80093	0.818564	0.400056
791	H	0.826897	0.799109	0.387007
792	N	0.785213	0.720277	0.375042
793	H	0.806505	0.73703	0.390549
794	N	0.709907	0.77666	0.627538
795	H	0.689434	0.759723	0.610495
796	C	0.726762	0.503645	0.365017
797	C	0.762145	0.531159	0.356328
798	C	0.780818	0.522802	0.657735
799	N	0.765887	0.990652	0.637955
800	C	0.732295	0.964792	0.64678
801	N	0.713776	0.972124	0.343682
802	H	0.805368	0.54111	0.646866
803	C	0.702661	0.506406	0.397397
804	H	0.714974	0.512889	0.430213
805	H	0.677508	0.481587	0.400122
806	H	0.696943	0.526997	0.387014
807	N	0.775768	0.564158	0.374986
808	H	0.759021	0.5687	0.390506
809	N	0.71936	0.932436	0.627574
810	H	0.736283	0.928899	0.610502
811	C	0.992392	0.722318	0.364991
812	C	0.964881	0.730204	0.356352
813	C	0.973232	0.757229	0.657748
814	N	0.505368	0.774435	0.637941
815	C	0.531227	0.766693	0.646733
816	N	0.5239	0.740838	0.343632
817	H	0.95492	0.763478	0.646903
818	C	0.989631	0.695447	0.397358
819	H	0.983173	0.70128	0.430183
820	H	0.014445	0.695097	0.400052
821	H	0.969025	0.669145	0.386984
822	N	0.931886	0.710834	0.375015
823	H	0.927347	0.689547	0.390536
824	N	0.563574	0.786108	0.627511
825	H	0.567113	0.806576	0.610452
826	C	0.675158	0.868727	0.623833
827	C	0.638905	0.842303	0.623394
828	C	0.627276	0.805618	0.62377
829	C	0.653709	0.795797	0.623361
830	C	0.690395	0.820854	0.957105
831	C	0.700225	0.857113	0.623328
832	H	0.645827	0.769571	0.626119
833	H	0.726444	0.875447	0.626202
834	H	0.620561	0.850183	0.626175
835	C	0.685405	0.9049	0.630472
836	C	0.716331	0.810617	0.96373
837	C	0.591104	0.779678	0.630379
838	O	0.749677	0.836183	0.641377
839	O	0.659847	0.912675	0.64152
840	O	0.583323	0.746335	0.641374
841	C	0.82001	0.628003	0.713122
842	C	0.856256	0.654486	0.713281
843	C	0.868049	0.691229	0.713178
844	C	0.841558	0.700989	0.713315
845	C	0.804812	0.67604	0.046547
846	C	0.795052	0.639789	0.713305
847	H	0.849509	0.727201	0.710597
848	H	0.768841	0.621534	0.71057
849	H	0.874518	0.646539	0.710484
850	C	0.809895	0.591652	0.707975
851	C	0.778567	0.686145	0.041427
852	C	0.904395	0.71747	0.708015
853	O	0.744205	0.660107	0.704945
854	O	0.835931	0.583322	0.704871
855	O	0.912725	0.751838	0.704925
856	C	0.773735	0.769296	0.698316
857	C	0.765846	0.733898	0.689683
858	C	0.738805	0.715209	0.991106
859	N	0.72159	0.730132	0.971299
860	C	0.729344	0.763743	0.980071
861	N	0.7552	0.782273	0.676964
862	H	0.732542	0.690643	0.980274
863	C	0.800588	0.793405	0.730699
864	H	0.794744	0.781108	0.763521
865	H	0.80093	0.818564	0.733391
866	H	0.826897	0.799109	0.720339
867	N	0.785213	0.720277	0.708374
868	H	0.806505	0.73703	0.723881
869	N	0.709907	0.77666	0.960873
870	H	0.689434	0.759723	0.943827
871	C	0.726762	0.503645	0.698349
872	C	0.762145	0.531159	0.689663
873	C	0.780818	0.522802	0.991066
874	N	0.765887	0.990652	0.971286
875	C	0.732295	0.964792	0.980115
876	N	0.713776	0.972124	0.677017
877	H	0.805368	0.54111	0.980198
878	C	0.702661	0.506406	0.730732
879	H	0.714974	0.512889	0.763545
880	H	0.677508	0.481587	0.733457
881	H	0.696943	0.526997	0.720345
882	N	0.775768	0.564158	0.70832
883	H	0.759021	0.5687	0.723838
884	N	0.71936	0.932436	0.960906
885	H	0.736283	0.928899	0.943834
886	C	0.992392	0.722318	0.698326
887	C	0.964881	0.730204	0.689686
888	C	0.973232	0.757229	0.99108
889	N	0.505368	0.774435	0.971273
890	C	0.531227	0.766693	0.980068
891	N	0.5239	0.740838	0.676964
892	H	0.95492	0.763478	0.980238
893	C	0.989631	0.695447	0.730693
894	H	0.983173	0.70128	0.763518
895	H	0.014445	0.695097	0.733384
896	H	0.969025	0.669145	0.720316
897	N	0.931886	0.710834	0.708347
898	H	0.927347	0.689547	0.723871
899	N	0.563574	0.786108	0.960843
900	H	0.567113	0.806576	0.943787
