data_C792H648N288O72_2018-02-15_10:35:45
#******************************************
#
# CIF file created by Zeo++
# Zeo++ is an open source package to
# analyze microporous materials
#
#*******************************************

_cell_length_a		45.8655   
_cell_length_b		45.8655   
_cell_length_c		29.8936   
_cell_angle_alpha		90   
_cell_angle_beta		90   
_cell_angle_gamma		120   

_symmetry_space_group_name_H-M		'P1'
_symmetry_Int_Tables_number		1
_symmetry_cell_setting		Monoclinic

loop_
_symmetry_equiv_pos_as_xyz
'+x,+y,+z'

loop_
_atom_site_label
_atom_site_type_symbol
_atom_site_fract_x
_atom_site_fract_y
_atom_site_fract_z
1	C	0.020726	0.26092	0.318856
2	H	0.027231	0.218785	0.999701
3	N	0.029938	0.313205	0.28548
4	C	0.020726	0.26092	0.652189
5	H	0.027231	0.218785	0.333034
6	N	0.029938	0.313205	0.618814
7	C	0.020726	0.26092	0.985524
8	H	0.027231	0.218785	0.666369
9	N	0.029938	0.313205	0.952149
10	C	0.020726	0.760919	0.318856
11	H	0.027229	0.718785	0.999701
12	N	0.029937	0.813204	0.28548
13	C	0.020726	0.760919	0.652189
14	H	0.027229	0.718785	0.333034
15	N	0.029937	0.813204	0.618814
16	C	0.020726	0.760919	0.985524
17	H	0.027229	0.718785	0.666369
18	N	0.029937	0.813204	0.952149
19	H	0.01088	0.300624	0.265599
20	H	0.01088	0.300624	0.598933
21	H	0.01088	0.300624	0.932265
22	H	0.010879	0.800624	0.265599
23	H	0.010879	0.800624	0.598933
24	H	0.010879	0.800624	0.932265
25	C	0.040801	0.296871	0.313126
26	C	0.038919	0.244353	0.997289
27	H	0.043221	0.337217	0.279694
28	O	0.054122	0.216433	0.0876
29	H	0.060535	0.239257	0.097888
30	C	0.040801	0.296871	0.646459
31	C	0.038919	0.244353	0.330622
32	H	0.043221	0.337217	0.613027
33	O	0.054122	0.216433	0.420932
34	H	0.060535	0.239257	0.431222
35	C	0.040801	0.296871	0.979794
36	C	0.038919	0.244353	0.663957
37	H	0.043221	0.337217	0.946362
38	O	0.054122	0.216433	0.754267
39	H	0.060535	0.239257	0.764557
40	C	0.040803	0.796872	0.313126
41	C	0.038919	0.744353	0.997289
42	H	0.043222	0.837219	0.279694
43	O	0.054122	0.716433	0.0876
44	H	0.060535	0.739258	0.097888
45	C	0.040803	0.796872	0.646462
46	C	0.038919	0.744353	0.330622
47	H	0.043222	0.837219	0.613027
48	O	0.054122	0.716433	0.420932
49	H	0.060535	0.739258	0.431222
50	C	0.040803	0.796872	0.979794
51	C	0.038919	0.744353	0.663957
52	H	0.043222	0.837219	0.946362
53	O	0.054122	0.716433	0.754267
54	H	0.060535	0.739258	0.764557
55	C	0.073322	0.315241	0.333607
56	C	0.072722	0.261811	0.011142
57	H	0.07699	0.188789	0.078126
58	C	0.073322	0.315241	0.666941
59	C	0.072722	0.261811	0.344475
60	H	0.07699	0.188789	0.411459
61	C	0.073322	0.315241	0.000273
62	C	0.072722	0.261811	0.67781
63	H	0.07699	0.188789	0.744794
64	C	0.07332	0.815241	0.333607
65	C	0.072722	0.761813	0.011142
66	H	0.076989	0.688788	0.078126
67	C	0.07332	0.815241	0.666941
68	C	0.072722	0.761813	0.344475
69	H	0.076989	0.688788	0.411459
70	C	0.07332	0.815241	0.000273
71	C	0.072722	0.761813	0.67781
72	H	0.076989	0.688788	0.744794
73	C	0.484352	0.242044	0.317492
74	C	0.465983	0.258689	0.994553
75	C	0.43136	0.241352	0.004266
76	C	0.414847	0.205891	0.009746
77	C	0.430697	0.18776	0.32761
78	C	0.464446	0.206162	0.310853
79	H	0.477881	0.284217	0.997928
80	N	0.384024	0.190251	0.030057
81	C	0.088194	0.296974	0.018536
82	N	0.117039	0.312006	0.043375
83	N	0.476546	0.189943	0.285098
84	H	0.99633	0.202732	0.266476
85	H	0.463036	0.166163	0.277969
86	H	0.510879	0.300624	0.265599
87	H	0.126064	0.33474	0.387327
88	H	0.123855	0.29852	0.060527
89	H	0.373275	0.166934	0.371681
90	H	0.376006	0.203195	0.045927
91	C	0.261853	0.242912	0.320684
92	C	0.245751	0.208035	0.998313
93	C	0.263681	0.192492	0.013471
94	C	0.298453	0.213091	0.023056
95	C	0.316465	0.246228	0.337975
96	C	0.29782	0.259278	0.315542
97	H	0.220188	0.193534	0.999477
98	N	0.313327	0.200106	0.049831
99	C	0.242811	0.26022	0.320357
100	C	0.206833	0.243983	0.315156
101	C	0.188465	0.258206	0.335433
102	C	0.206735	0.291609	0.019555
103	C	0.241719	0.311543	0.010964
104	C	0.259246	0.295254	0.997225
105	N	0.191783	0.305367	0.044703
106	H	0.284828	0.309476	0.998664
107	N	0.313854	0.286163	0.287342
108	N	0.190504	0.216363	0.288236
109	H	0.301109	0.292065	0.26691
110	H	0.338006	0.297601	0.282369
111	H	0.166428	0.205407	0.282798
112	H	0.203078	0.209873	0.268365
113	H	0.169557	0.291319	0.39007
114	H	0.205577	0.325931	0.061281
115	H	0.334657	0.21493	0.397155
116	H	0.299638	0.179007	0.065477
117	C	0.261859	0.020059	0.320086
118	C	0.296834	0.037935	0.997483
119	C	0.313559	0.071372	0.012952
120	C	0.294154	0.087025	0.021289
121	C	0.261314	0.073069	0.335673
122	C	0.246432	0.040558	0.315057
123	H	0.310507	0.025992	0.999045
124	N	0.307825	0.115126	0.047572
125	C	0.243838	0.483675	0.31962
126	C	0.259499	0.463444	0.313766
127	C	0.245014	0.430849	0.334031
128	C	0.211954	0.416277	0.019063
129	C	0.192296	0.431677	0.010911
130	C	0.20884	0.465486	0.996911
131	N	0.19827	0.38776	0.044534
132	H	0.194943	0.477185	0.99853
133	N	0.219068	0.030117	0.28785
134	N	0.286777	0.474302	0.286276
135	H	0.212335	0.511142	0.267712
136	H	0.208746	0.043804	0.282314
137	H	0.297118	0.460717	0.280088
138	H	0.293239	0.993395	0.266455
139	H	0.211846	0.378627	0.388698
140	H	0.178011	0.381207	0.061741
141	H	0.294701	0.125059	0.390879
142	H	0.327413	0.120677	0.065837
143	C	0.093401	0.247446	0.003655
144	N	0.115202	0.261854	0.302241
145	C	0.143417	0.260061	0.295453
146	C	0.153437	0.244931	0.995165
147	N	0.132236	0.23143	0.03078
148	C	0.102172	0.230532	0.036274
149	H	0.159377	0.274082	0.27025
150	C	0.084272	0.21537	0.078853
151	H	0.101722	0.226918	0.106885
152	C	0.255661	0.346472	0.003052
153	N	0.240336	0.353287	0.302217
154	C	0.242065	0.383211	0.294943
155	C	0.258051	0.408895	0.99383
156	N	0.272311	0.40173	0.02905
157	C	0.273362	0.372662	0.034769
158	H	0.227237	0.384646	0.270489
159	C	0.289383	0.370548	0.0769
160	O	0.288417	0.339435	0.086077
161	H	0.278457	0.37693	0.105205
162	H	0.315955	0.389782	0.075118
163	H	0.265773	0.323212	0.097146
164	C	0.157341	0.410786	0.002887
165	N	0.150331	0.388969	0.301568
166	C	0.120514	0.360573	0.29447
167	C	0.095014	0.350357	0.993733
168	N	0.102335	0.371514	0.029317
169	C	0.131327	0.401705	0.035112
170	H	0.118922	0.344712	0.269328
171	C	0.133538	0.419502	0.0776
172	O	0.164471	0.449894	0.086585
173	H	0.127663	0.402085	0.105669
174	H	0.113997	0.426446	0.076526
175	H	0.181017	0.443782	0.097256
176	C	0.412097	0.257546	0.99949
177	N	0.389513	0.244424	0.298589
178	C	0.361084	0.24622	0.294453
179	C	0.351405	0.259331	0.997162
180	N	0.373288	0.271554	0.032204
181	C	0.403618	0.272717	0.034918
182	H	0.344637	0.232957	0.269295
183	C	0.4218	0.285735	0.077938
184	O	0.451941	0.284232	0.084438
185	H	0.404528	0.272871	0.105752
186	H	0.42914	0.312301	0.079934
187	H	0.445518	0.26095	0.092402
188	C	0.250778	0.157735	0.00539
189	N	0.266868	0.151499	0.305015
190	C	0.265591	0.121785	0.297776
191	C	0.248817	0.09547	0.995657
192	N	0.233821	0.102197	0.030428
193	C	0.232571	0.131141	0.03639
194	H	0.280632	0.120585	0.273438
195	C	0.215462	0.132576	0.077835
196	O	0.216243	0.163558	0.087341
197	H	0.225647	0.125715	0.106517
198	H	0.188949	0.113397	0.074795
199	H	0.238657	0.179613	0.099264
200	C	0.348377	0.091951	0.003703
201	N	0.354675	0.111777	0.300266
202	C	0.384313	0.139845	0.29087
203	C	0.410238	0.152266	0.989869
204	N	0.403469	0.133081	0.027475
205	C	0.374835	0.10304	0.035617
206	H	0.385191	0.154416	0.264437
207	C	0.37339	0.087313	0.079603
208	O	0.343297	0.056343	0.08963
209	H	0.378323	0.105581	0.106265
210	H	0.393838	0.081643	0.080181
211	H	0.325986	0.061628	0.099492
212	C	0.484352	0.242044	0.650827
213	C	0.465983	0.258689	0.327886
214	C	0.43136	0.241352	0.3376
215	C	0.414847	0.205891	0.34308
216	C	0.430697	0.18776	0.660943
217	C	0.464446	0.206162	0.644187
218	H	0.477881	0.284217	0.33126
219	N	0.384024	0.190251	0.363392
220	C	0.088194	0.296974	0.351871
221	N	0.117039	0.312006	0.376709
222	N	0.476546	0.189943	0.618433
223	H	0.99633	0.202732	0.59981
224	H	0.463036	0.166163	0.611304
225	H	0.510879	0.300624	0.598933
226	H	0.126064	0.33474	0.720662
227	H	0.123855	0.29852	0.39386
228	H	0.373275	0.166934	0.705013
229	H	0.376006	0.203195	0.379261
230	C	0.261853	0.242912	0.654019
231	C	0.245751	0.208035	0.331644
232	C	0.263681	0.192492	0.346803
233	C	0.298453	0.213091	0.35639
234	C	0.316465	0.246228	0.671307
235	C	0.29782	0.259278	0.648877
236	H	0.220188	0.193534	0.332809
237	N	0.313327	0.200106	0.383165
238	C	0.242811	0.26022	0.653691
239	C	0.206833	0.243983	0.648489
240	C	0.188465	0.258206	0.668768
241	C	0.206735	0.291609	0.352888
242	C	0.241719	0.311543	0.344297
243	C	0.259246	0.295254	0.330559
244	N	0.191783	0.305367	0.378037
245	H	0.284828	0.309476	0.331995
246	N	0.313854	0.286163	0.620677
247	N	0.190504	0.216363	0.62157
248	H	0.301109	0.292065	0.600245
249	H	0.338006	0.297601	0.615703
250	H	0.166428	0.205407	0.616131
251	H	0.203078	0.209873	0.6017
252	H	0.169557	0.291319	0.723401
253	H	0.205577	0.325931	0.394616
254	H	0.334657	0.21493	0.730486
255	H	0.299638	0.179007	0.398811
256	C	0.261859	0.020059	0.65342
257	C	0.296834	0.037935	0.330814
258	C	0.313559	0.071372	0.346284
259	C	0.294154	0.087025	0.354624
260	C	0.261314	0.073069	0.669009
261	C	0.246432	0.040558	0.648392
262	H	0.310507	0.025992	0.332379
263	N	0.307825	0.115126	0.380907
264	C	0.243838	0.483675	0.652955
265	C	0.259499	0.463444	0.647101
266	C	0.245014	0.430849	0.667366
267	C	0.211954	0.416277	0.352396
268	C	0.192296	0.431677	0.344244
269	C	0.20884	0.465486	0.330244
270	N	0.19827	0.38776	0.377866
271	H	0.194943	0.477185	0.331863
272	N	0.219068	0.030117	0.621182
273	N	0.286777	0.474302	0.61961
274	H	0.212335	0.511142	0.601048
275	H	0.208746	0.043804	0.615646
276	H	0.297118	0.460717	0.613421
277	H	0.293239	0.993395	0.59979
278	H	0.211846	0.378627	0.722033
279	H	0.178011	0.381207	0.395074
280	H	0.294701	0.125059	0.724214
281	H	0.327413	0.120677	0.399172
282	C	0.093401	0.247446	0.336988
283	N	0.115202	0.261854	0.635573
284	C	0.143417	0.260061	0.628786
285	C	0.153437	0.244931	0.328498
286	N	0.132236	0.23143	0.364114
287	C	0.102172	0.230532	0.369607
288	H	0.159377	0.274082	0.603583
289	C	0.084272	0.21537	0.412188
290	H	0.101722	0.226918	0.440217
291	C	0.255661	0.346472	0.336386
292	N	0.240336	0.353287	0.63555
293	C	0.242065	0.383211	0.628277
294	C	0.258051	0.408895	0.327163
295	N	0.272311	0.40173	0.362385
296	C	0.273362	0.372662	0.368102
297	H	0.227237	0.384646	0.603824
298	C	0.289383	0.370548	0.410234
299	O	0.288417	0.339435	0.41941
300	H	0.278457	0.37693	0.438538
301	H	0.315955	0.389782	0.408451
302	H	0.265773	0.323212	0.43048
303	C	0.157341	0.410786	0.336222
304	N	0.150331	0.388969	0.634901
305	C	0.120514	0.360573	0.627802
306	C	0.095014	0.350357	0.327065
307	N	0.102335	0.371514	0.362652
308	C	0.131327	0.401705	0.368446
309	H	0.118922	0.344712	0.602663
310	C	0.133538	0.419502	0.410934
311	O	0.164471	0.449894	0.419919
312	H	0.127663	0.402085	0.439003
313	H	0.113997	0.426446	0.40986
314	H	0.181017	0.443782	0.43059
315	C	0.412097	0.257546	0.332822
316	N	0.389513	0.244424	0.631924
317	C	0.361084	0.24622	0.627786
318	C	0.351405	0.259331	0.330496
319	N	0.373288	0.271554	0.365539
320	C	0.403618	0.272717	0.368252
321	H	0.344637	0.232957	0.60263
322	C	0.4218	0.285735	0.411271
323	O	0.451941	0.284232	0.417771
324	H	0.404528	0.272871	0.439087
325	H	0.42914	0.312301	0.413269
326	H	0.445518	0.26095	0.425736
327	C	0.250778	0.157735	0.338724
328	N	0.266868	0.151499	0.63835
329	C	0.265591	0.121785	0.631111
330	C	0.248817	0.09547	0.32899
331	N	0.233821	0.102197	0.363763
332	C	0.232571	0.131141	0.369724
333	H	0.280632	0.120585	0.606771
334	C	0.215462	0.132576	0.411168
335	O	0.216243	0.163558	0.420675
336	H	0.225647	0.125715	0.439849
337	H	0.188949	0.113397	0.408127
338	H	0.238657	0.179613	0.432597
339	C	0.348377	0.091951	0.337038
340	N	0.354675	0.111777	0.6336
341	C	0.384313	0.139845	0.624203
342	C	0.410238	0.152266	0.3232
343	N	0.403469	0.133081	0.360809
344	C	0.374835	0.10304	0.368951
345	H	0.385191	0.154416	0.597769
346	C	0.37339	0.087313	0.412937
347	O	0.343297	0.056343	0.422963
348	H	0.378323	0.105581	0.439599
349	H	0.393838	0.081643	0.413513
350	H	0.325986	0.061628	0.432825
351	C	0.484352	0.242044	0.984159
352	C	0.465983	0.258689	0.661221
353	C	0.43136	0.241352	0.670932
354	C	0.414847	0.205891	0.676415
355	C	0.430697	0.18776	0.994278
356	C	0.464446	0.206162	0.977522
357	H	0.477881	0.284217	0.664593
358	N	0.384024	0.190251	0.696723
359	C	0.088194	0.296974	0.685203
360	N	0.117039	0.312006	0.710041
361	N	0.476546	0.189943	0.951768
362	H	0.99633	0.202732	0.933145
363	H	0.463036	0.166163	0.944636
364	H	0.510879	0.300624	0.932265
365	H	0.126064	0.33474	0.053994
366	H	0.123855	0.29852	0.727195
367	H	0.373275	0.166934	0.038346
368	H	0.376006	0.203195	0.712593
369	C	0.261853	0.242912	0.98735
370	C	0.245751	0.208035	0.664978
371	C	0.263681	0.192492	0.680138
372	C	0.298453	0.213091	0.689725
373	C	0.316465	0.246228	0.00464
374	C	0.29782	0.259278	0.982209
375	H	0.220188	0.193534	0.666142
376	N	0.313327	0.200106	0.7165
377	C	0.242811	0.26022	0.987026
378	C	0.206833	0.243983	0.981824
379	C	0.188465	0.258206	0.0021
380	C	0.206735	0.291609	0.686223
381	C	0.241719	0.311543	0.677632
382	C	0.259246	0.295254	0.663894
383	N	0.191783	0.305367	0.711369
384	H	0.284828	0.309476	0.665329
385	N	0.313854	0.286163	0.954009
386	N	0.190504	0.216363	0.954902
387	H	0.301109	0.292065	0.933577
388	H	0.338006	0.297601	0.949038
389	H	0.166428	0.205407	0.949466
390	H	0.203078	0.209873	0.935032
391	H	0.169557	0.291319	0.056735
392	H	0.205577	0.325931	0.727947
393	H	0.334657	0.21493	0.06382
394	H	0.299638	0.179007	0.732146
395	C	0.261859	0.020059	0.986755
396	C	0.296834	0.037935	0.664148
397	C	0.313559	0.071372	0.679619
398	C	0.294154	0.087025	0.687956
399	C	0.261314	0.073069	0.002341
400	C	0.246432	0.040558	0.981724
401	H	0.310507	0.025992	0.665714
402	N	0.307825	0.115126	0.714239
403	C	0.243838	0.483675	0.986287
404	C	0.259499	0.463444	0.980433
405	C	0.245014	0.430849	0.000698
406	C	0.211954	0.416277	0.685731
407	C	0.192296	0.431677	0.677579
408	C	0.20884	0.465486	0.663579
409	N	0.19827	0.38776	0.711201
410	H	0.194943	0.477185	0.665198
411	N	0.219068	0.030117	0.954517
412	N	0.286777	0.474302	0.952945
413	H	0.212335	0.511142	0.934379
414	H	0.208746	0.043804	0.948981
415	H	0.297118	0.460717	0.946757
416	H	0.293239	0.993395	0.933122
417	H	0.211846	0.378627	0.055366
418	H	0.178011	0.381207	0.728409
419	H	0.294701	0.125059	0.057546
420	H	0.327413	0.120677	0.732504
421	C	0.093401	0.247446	0.670323
422	N	0.115202	0.261854	0.968908
423	C	0.143417	0.260061	0.962121
424	C	0.153437	0.244931	0.661833
425	N	0.132236	0.23143	0.697449
426	C	0.102172	0.230532	0.702942
427	H	0.159377	0.274082	0.936918
428	C	0.084272	0.21537	0.74552
429	H	0.101722	0.226918	0.773553
430	C	0.255661	0.346472	0.669721
431	N	0.240336	0.353287	0.968885
432	C	0.242065	0.383211	0.961609
433	C	0.258051	0.408895	0.660498
434	N	0.272311	0.40173	0.695717
435	C	0.273362	0.372662	0.701437
436	H	0.227237	0.384646	0.937156
437	C	0.289383	0.370548	0.743566
438	O	0.288417	0.339435	0.752745
439	H	0.278457	0.37693	0.771873
440	H	0.315955	0.389782	0.741787
441	H	0.265773	0.323212	0.763815
442	C	0.157341	0.410786	0.669554
443	N	0.150331	0.388969	0.968236
444	C	0.120514	0.360573	0.961138
445	C	0.095014	0.350357	0.660398
446	N	0.102335	0.371514	0.695984
447	C	0.131327	0.401705	0.701778
448	H	0.118922	0.344712	0.935995
449	C	0.133538	0.419502	0.744269
450	O	0.164471	0.449894	0.753254
451	H	0.127663	0.402085	0.772338
452	H	0.113997	0.426446	0.743195
453	H	0.181017	0.443782	0.763925
454	C	0.412097	0.257546	0.666155
455	N	0.389513	0.244424	0.965255
456	C	0.361084	0.24622	0.961121
457	C	0.351405	0.259331	0.66383
458	N	0.373288	0.271554	0.698871
459	C	0.403618	0.272717	0.701587
460	H	0.344637	0.232957	0.935962
461	C	0.4218	0.285735	0.744607
462	O	0.451941	0.284232	0.751106
463	H	0.404528	0.272871	0.772418
464	H	0.42914	0.312301	0.7466
465	H	0.445518	0.26095	0.759071
466	C	0.250778	0.157735	0.672056
467	N	0.266868	0.151499	0.971682
468	C	0.265591	0.121785	0.964443
469	C	0.248817	0.09547	0.662325
470	N	0.233821	0.102197	0.697095
471	C	0.232571	0.131141	0.703059
472	H	0.280632	0.120585	0.940106
473	C	0.215462	0.132576	0.744503
474	O	0.216243	0.163558	0.75401
475	H	0.225647	0.125715	0.773185
476	H	0.188949	0.113397	0.741462
477	H	0.238657	0.179613	0.765932
478	C	0.348377	0.091951	0.67037
479	N	0.354675	0.111777	0.966935
480	C	0.384313	0.139845	0.957538
481	C	0.410238	0.152266	0.656534
482	N	0.403469	0.133081	0.694144
483	C	0.374835	0.10304	0.702287
484	H	0.385191	0.154416	0.931104
485	C	0.37339	0.087313	0.746269
486	O	0.343297	0.056343	0.756298
487	H	0.378323	0.105581	0.772934
488	H	0.393838	0.081643	0.746848
489	H	0.325986	0.061628	0.76616
490	C	0.48435	0.742044	0.317492
491	C	0.465982	0.758688	0.994553
492	C	0.431361	0.741352	0.004266
493	C	0.414847	0.705892	0.009746
494	C	0.430697	0.68776	0.32761
495	C	0.464446	0.706161	0.310853
496	H	0.477881	0.784216	0.997928
497	N	0.384025	0.69025	0.030057
498	C	0.088194	0.796973	0.018536
499	N	0.117037	0.812006	0.043375
500	N	0.476546	0.689943	0.285098
501	H	0.996332	0.702732	0.266476
502	H	0.463035	0.666162	0.277969
503	H	0.510879	0.800624	0.265599
504	H	0.126064	0.834742	0.387327
505	H	0.123853	0.798519	0.060527
506	H	0.373274	0.666935	0.371681
507	H	0.376006	0.703196	0.045927
508	C	0.261853	0.742913	0.320684
509	C	0.24575	0.708034	0.998313
510	C	0.26368	0.692491	0.013471
511	C	0.298452	0.71309	0.023056
512	C	0.316465	0.746229	0.337975
513	C	0.297821	0.75928	0.315542
514	H	0.220187	0.693533	0.999477
515	N	0.313327	0.700107	0.049831
516	C	0.24281	0.760219	0.320357
517	C	0.206832	0.743983	0.315156
518	C	0.188465	0.758205	0.335433
519	C	0.206734	0.791608	0.019555
520	C	0.241718	0.811542	0.010964
521	C	0.259245	0.795254	0.997225
522	N	0.191782	0.805367	0.044703
523	H	0.284827	0.809475	0.998664
524	N	0.313854	0.786163	0.287342
525	N	0.190503	0.716363	0.288236
526	H	0.301108	0.792064	0.26691
527	H	0.338005	0.7976	0.282369
528	H	0.166428	0.705409	0.282798
529	H	0.203077	0.709872	0.268365
530	H	0.169556	0.791319	0.39007
531	H	0.205578	0.825933	0.061281
532	H	0.334656	0.71493	0.397155
533	H	0.299637	0.679007	0.065477
534	C	0.261859	0.520059	0.320086
535	C	0.296834	0.537934	0.997483
536	C	0.313558	0.571373	0.012952
537	C	0.294153	0.587024	0.021289
538	C	0.261314	0.573069	0.335673
539	C	0.246431	0.540557	0.315057
540	H	0.310507	0.525991	0.999045
541	N	0.307824	0.615126	0.047572
542	C	0.243837	0.983674	0.31962
543	C	0.259499	0.963443	0.313766
544	C	0.245013	0.930848	0.334031
545	C	0.211952	0.916276	0.019063
546	C	0.192294	0.931676	0.010911
547	C	0.208838	0.965485	0.996911
548	N	0.198271	0.887762	0.044534
549	H	0.194942	0.977187	0.99853
550	N	0.219068	0.530117	0.28785
551	N	0.286778	0.974304	0.286276
552	H	0.212335	0.011142	0.267712
553	H	0.208746	0.543805	0.282314
554	H	0.297117	0.960717	0.280088
555	H	0.29324	0.493396	0.266455
556	H	0.211846	0.878628	0.388698
557	H	0.178012	0.881209	0.061741
558	H	0.2947	0.625058	0.390879
559	H	0.327413	0.620677	0.065837
560	C	0.0934	0.747445	0.003655
561	N	0.115202	0.761855	0.302241
562	C	0.143416	0.76006	0.295453
563	C	0.153438	0.744932	0.995165
564	N	0.132236	0.73143	0.03078
565	C	0.102172	0.730532	0.036274
566	H	0.159376	0.774081	0.27025
567	C	0.084272	0.715371	0.078853
568	H	0.101722	0.726919	0.106885
569	C	0.255661	0.846474	0.003052
570	N	0.240336	0.853286	0.302217
571	C	0.242064	0.88321	0.294943
572	C	0.258051	0.908897	0.99383
573	N	0.27231	0.90173	0.02905
574	C	0.273361	0.872662	0.034769
575	H	0.227236	0.884645	0.270489
576	C	0.289382	0.870547	0.0769
577	O	0.288416	0.839435	0.086077
578	H	0.278457	0.876931	0.105205
579	H	0.315954	0.889781	0.075118
580	H	0.265772	0.823211	0.097146
581	C	0.15734	0.910785	0.002887
582	N	0.150329	0.888968	0.301568
583	C	0.120513	0.860575	0.29447
584	C	0.095014	0.850356	0.993733
585	N	0.102335	0.871514	0.029317
586	C	0.131326	0.901704	0.035112
587	H	0.118923	0.844714	0.269328
588	C	0.133537	0.919501	0.0776
589	O	0.164472	0.949896	0.086585
590	H	0.127662	0.902087	0.105669
591	H	0.113996	0.926445	0.076526
592	H	0.181018	0.943783	0.097256
593	C	0.412098	0.757548	0.99949
594	N	0.389512	0.744424	0.298589
595	C	0.361082	0.746219	0.294453
596	C	0.351403	0.75933	0.997162
597	N	0.373288	0.771553	0.032204
598	C	0.403617	0.772716	0.034918
599	H	0.344636	0.732956	0.269295
600	C	0.421801	0.785737	0.077938
601	O	0.451941	0.784232	0.084438
602	H	0.404526	0.77287	0.105752
603	H	0.42914	0.812303	0.079934
604	H	0.445518	0.760952	0.092402
605	C	0.250778	0.657736	0.00539
606	N	0.266868	0.6515	0.305015
607	C	0.26559	0.621785	0.297776
608	C	0.248817	0.595471	0.995657
609	N	0.233821	0.602198	0.030428
610	C	0.23257	0.63114	0.03639
611	H	0.280633	0.620586	0.273438
612	C	0.215461	0.632575	0.077835
613	O	0.216243	0.663559	0.087341
614	H	0.225646	0.625715	0.106517
615	H	0.188949	0.613396	0.074795
616	H	0.238657	0.679613	0.099264
617	C	0.348378	0.591951	0.003703
618	N	0.354675	0.611777	0.300266
619	C	0.384313	0.639846	0.29087
620	C	0.410237	0.652265	0.989869
621	N	0.403469	0.633081	0.027475
622	C	0.374833	0.603039	0.035617
623	H	0.38519	0.654415	0.264437
624	C	0.37339	0.587314	0.079603
625	O	0.343296	0.556343	0.08963
626	H	0.378322	0.605582	0.106265
627	H	0.393838	0.581642	0.080181
628	H	0.325985	0.56163	0.099492
629	C	0.48435	0.742044	0.650827
630	C	0.465982	0.758688	0.327886
631	C	0.431361	0.741352	0.3376
632	C	0.414847	0.705892	0.34308
633	C	0.430697	0.68776	0.660943
634	C	0.464446	0.706161	0.644187
635	H	0.477881	0.784216	0.33126
636	N	0.384025	0.69025	0.363392
637	C	0.088194	0.796973	0.351871
638	N	0.117037	0.812006	0.376709
639	N	0.476546	0.689943	0.618433
640	H	0.996332	0.702732	0.59981
641	H	0.463035	0.666162	0.611304
642	H	0.510879	0.800624	0.598933
643	H	0.126064	0.834742	0.720662
644	H	0.123853	0.798519	0.39386
645	H	0.373274	0.666935	0.705013
646	H	0.376006	0.703196	0.379261
647	C	0.261853	0.742913	0.654019
648	C	0.24575	0.708034	0.331644
649	C	0.26368	0.692491	0.346803
650	C	0.298452	0.71309	0.35639
651	C	0.316465	0.746229	0.671307
652	C	0.297821	0.75928	0.648877
653	H	0.220187	0.693533	0.332809
654	N	0.313327	0.700107	0.383165
655	C	0.24281	0.760219	0.653691
656	C	0.206832	0.743983	0.648489
657	C	0.188465	0.758205	0.668768
658	C	0.206734	0.791608	0.352888
659	C	0.241718	0.811542	0.344297
660	C	0.259245	0.795254	0.330559
661	N	0.191782	0.805367	0.378037
662	H	0.284827	0.809475	0.331995
663	N	0.313854	0.786163	0.620677
664	N	0.190503	0.716363	0.62157
665	H	0.301108	0.792064	0.600245
666	H	0.338005	0.7976	0.615703
667	H	0.166428	0.705409	0.616131
668	H	0.203077	0.709872	0.6017
669	H	0.169556	0.791319	0.723401
670	H	0.205578	0.825933	0.394616
671	H	0.334656	0.71493	0.730486
672	H	0.299637	0.679007	0.398811
673	C	0.261859	0.520059	0.65342
674	C	0.296834	0.537934	0.330814
675	C	0.313558	0.571373	0.346284
676	C	0.294153	0.587024	0.354624
677	C	0.261314	0.573069	0.669009
678	C	0.246431	0.540557	0.648392
679	H	0.310507	0.525991	0.332379
680	N	0.307824	0.615126	0.380907
681	C	0.243837	0.983674	0.652955
682	C	0.259499	0.963443	0.647101
683	C	0.245013	0.930848	0.667366
684	C	0.211952	0.916276	0.352396
685	C	0.192294	0.931676	0.344244
686	C	0.208838	0.965485	0.330244
687	N	0.198271	0.887762	0.377866
688	H	0.194942	0.977187	0.331863
689	N	0.219068	0.530117	0.621182
690	N	0.286778	0.974304	0.61961
691	H	0.212335	0.011142	0.601048
692	H	0.208746	0.543805	0.615646
693	H	0.297117	0.960717	0.613421
694	H	0.29324	0.493396	0.59979
695	H	0.211846	0.878628	0.722033
696	H	0.178012	0.881209	0.395074
697	H	0.2947	0.625058	0.724214
698	H	0.327413	0.620677	0.399172
699	C	0.0934	0.747445	0.336988
700	N	0.115202	0.761855	0.635573
701	C	0.143416	0.76006	0.628786
702	C	0.153438	0.744932	0.328498
703	N	0.132236	0.73143	0.364114
704	C	0.102172	0.730532	0.369607
705	H	0.159376	0.774081	0.603583
706	C	0.084272	0.715371	0.412188
707	H	0.101722	0.726919	0.440217
708	C	0.255661	0.846474	0.336386
709	N	0.240336	0.853286	0.63555
710	C	0.242064	0.88321	0.628277
711	C	0.258051	0.908897	0.327163
712	N	0.27231	0.90173	0.362385
713	C	0.273361	0.872662	0.368102
714	H	0.227236	0.884645	0.603824
715	C	0.289382	0.870547	0.410234
716	O	0.288416	0.839435	0.41941
717	H	0.278457	0.876931	0.438538
718	H	0.315954	0.889781	0.408451
719	H	0.265772	0.823211	0.43048
720	C	0.15734	0.910785	0.336222
721	N	0.150329	0.888968	0.634901
722	C	0.120513	0.860575	0.627802
723	C	0.095014	0.850356	0.327065
724	N	0.102335	0.871514	0.362652
725	C	0.131326	0.901704	0.368446
726	H	0.118923	0.844714	0.602663
727	C	0.133537	0.919501	0.410934
728	O	0.164472	0.949896	0.419919
729	H	0.127662	0.902087	0.439003
730	H	0.113996	0.926445	0.40986
731	H	0.181018	0.943783	0.43059
732	C	0.412098	0.757548	0.332822
733	N	0.389512	0.744424	0.631924
734	C	0.361082	0.746219	0.627786
735	C	0.351403	0.75933	0.330496
736	N	0.373288	0.771553	0.365539
737	C	0.403617	0.772716	0.368252
738	H	0.344636	0.732956	0.60263
739	C	0.421801	0.785737	0.411271
740	O	0.451941	0.784232	0.417771
741	H	0.404526	0.77287	0.439087
742	H	0.42914	0.812303	0.413269
743	H	0.445518	0.760952	0.425736
744	C	0.250778	0.657736	0.338724
745	N	0.266868	0.6515	0.63835
746	C	0.26559	0.621785	0.631111
747	C	0.248817	0.595471	0.32899
748	N	0.233821	0.602198	0.363763
749	C	0.23257	0.63114	0.369724
750	H	0.280633	0.620586	0.606771
751	C	0.215461	0.632575	0.411168
752	O	0.216243	0.663559	0.420675
753	H	0.225646	0.625715	0.439849
754	H	0.188949	0.613396	0.408127
755	H	0.238657	0.679613	0.432597
756	C	0.348378	0.591951	0.337038
757	N	0.354675	0.611777	0.6336
758	C	0.384313	0.639846	0.624203
759	C	0.410237	0.652265	0.3232
760	N	0.403469	0.633081	0.360809
761	C	0.374833	0.603039	0.368951
762	H	0.38519	0.654415	0.597769
763	C	0.37339	0.587314	0.412937
764	O	0.343296	0.556343	0.422963
765	H	0.378322	0.605582	0.439599
766	H	0.393838	0.581642	0.413516
767	H	0.325985	0.56163	0.432825
768	C	0.48435	0.742044	0.984159
769	C	0.465982	0.758688	0.661221
770	C	0.431361	0.741352	0.670932
771	C	0.414847	0.705892	0.676415
772	C	0.430697	0.68776	0.994278
773	C	0.464446	0.706161	0.977522
774	H	0.477881	0.784216	0.664593
775	N	0.384025	0.69025	0.696723
776	C	0.088194	0.796973	0.685203
777	N	0.117037	0.812006	0.710044
778	N	0.476546	0.689943	0.951768
779	H	0.996332	0.702732	0.933145
780	H	0.463035	0.666162	0.944636
781	H	0.510879	0.800624	0.932265
782	H	0.126064	0.834742	0.053994
783	H	0.123853	0.798519	0.727195
784	H	0.373274	0.666935	0.038346
785	H	0.376006	0.703196	0.712593
786	C	0.261853	0.742913	0.98735
787	C	0.24575	0.708034	0.664978
788	C	0.26368	0.692491	0.680138
789	C	0.298452	0.71309	0.689725
790	C	0.316465	0.746229	0.00464
791	C	0.297821	0.75928	0.982209
792	H	0.220187	0.693533	0.666142
793	N	0.313327	0.700107	0.7165
794	C	0.24281	0.760219	0.987026
795	C	0.206832	0.743983	0.981824
796	C	0.188465	0.758205	0.0021
797	C	0.206734	0.791608	0.686223
798	C	0.241718	0.811542	0.677632
799	C	0.259245	0.795254	0.663894
800	N	0.191782	0.805367	0.711369
801	H	0.284827	0.809475	0.665329
802	N	0.313854	0.786163	0.954009
803	N	0.190503	0.716363	0.954902
804	H	0.301108	0.792064	0.933577
805	H	0.338005	0.7976	0.949038
806	H	0.166428	0.705409	0.949466
807	H	0.203077	0.709872	0.935032
808	H	0.169556	0.791319	0.056735
809	H	0.205578	0.825933	0.727947
810	H	0.334656	0.71493	0.06382
811	H	0.299637	0.679007	0.732146
812	C	0.261859	0.520059	0.986755
813	C	0.296834	0.537934	0.664148
814	C	0.313558	0.571373	0.679619
815	C	0.294153	0.587024	0.687956
816	C	0.261314	0.573069	0.002341
817	C	0.246431	0.540557	0.981724
818	H	0.310507	0.525991	0.665714
819	N	0.307824	0.615126	0.714239
820	C	0.243837	0.983674	0.986287
821	C	0.259499	0.963443	0.980433
822	C	0.245013	0.930848	0.000698
823	C	0.211952	0.916276	0.685731
824	C	0.192294	0.931676	0.677579
825	C	0.208838	0.965485	0.663579
826	N	0.198271	0.887762	0.711201
827	H	0.194942	0.977187	0.665198
828	N	0.219068	0.530117	0.954517
829	N	0.286778	0.974304	0.952945
830	H	0.212335	0.011142	0.934379
831	H	0.208746	0.543805	0.948981
832	H	0.297117	0.960717	0.946757
833	H	0.29324	0.493396	0.933122
834	H	0.211846	0.878628	0.055366
835	H	0.178012	0.881209	0.728409
836	H	0.2947	0.625058	0.057546
837	H	0.327413	0.620677	0.732504
838	C	0.0934	0.747445	0.670323
839	N	0.115202	0.761855	0.968908
840	C	0.143416	0.76006	0.962121
841	C	0.153438	0.744932	0.661833
842	N	0.132236	0.73143	0.697449
843	C	0.102172	0.730532	0.702942
844	H	0.159376	0.774081	0.936918
845	C	0.084272	0.715371	0.74552
846	H	0.101722	0.726919	0.773553
847	C	0.255661	0.846474	0.669721
848	N	0.240336	0.853286	0.968885
849	C	0.242064	0.88321	0.961609
850	C	0.258051	0.908897	0.660498
851	N	0.27231	0.90173	0.695717
852	C	0.273361	0.872662	0.701437
853	H	0.227236	0.884645	0.937156
854	C	0.289382	0.870547	0.743566
855	O	0.288416	0.839435	0.752745
856	H	0.278457	0.876931	0.771873
857	H	0.315954	0.889781	0.741787
858	H	0.265772	0.823211	0.763815
859	C	0.15734	0.910785	0.669554
860	N	0.150329	0.888968	0.968236
861	C	0.120513	0.860575	0.961138
862	C	0.095014	0.850356	0.660398
863	N	0.102335	0.871514	0.695984
864	C	0.131326	0.901704	0.701778
865	H	0.118923	0.844714	0.935995
866	C	0.133537	0.919501	0.744269
867	O	0.164472	0.949896	0.753254
868	H	0.127662	0.902087	0.772338
869	H	0.113996	0.926445	0.743195
870	H	0.181018	0.943783	0.763925
871	C	0.412098	0.757548	0.666155
872	N	0.389512	0.744424	0.965255
873	C	0.361082	0.746219	0.961121
874	C	0.351403	0.75933	0.66383
875	N	0.373288	0.771553	0.698871
876	C	0.403617	0.772716	0.701587
877	H	0.344636	0.732956	0.935962
878	C	0.421801	0.785737	0.744607
879	O	0.451941	0.784232	0.751106
880	H	0.404526	0.77287	0.772418
881	H	0.42914	0.812303	0.7466
882	H	0.445518	0.760952	0.759071
883	C	0.250778	0.657736	0.672056
884	N	0.266868	0.6515	0.971682
885	C	0.26559	0.621785	0.964443
886	C	0.248817	0.595471	0.662325
887	N	0.233821	0.602198	0.697095
888	C	0.23257	0.63114	0.703059
889	H	0.280633	0.620586	0.940106
890	C	0.215461	0.632575	0.744503
891	O	0.216243	0.663559	0.75401
892	H	0.225646	0.625715	0.773185
893	H	0.188949	0.613396	0.741462
894	H	0.238657	0.679613	0.765932
895	C	0.348378	0.591951	0.67037
896	N	0.354675	0.611777	0.966935
897	C	0.384313	0.639846	0.957538
898	C	0.410237	0.652265	0.656534
899	N	0.403469	0.633081	0.694144
900	C	0.374833	0.603039	0.702287
901	H	0.38519	0.654415	0.931104
902	C	0.37339	0.587314	0.746269
903	O	0.343296	0.556343	0.756298
904	H	0.378322	0.605582	0.772934
905	H	0.393838	0.581642	0.746848
906	H	0.325985	0.56163	0.76616
907	C	0.984351	0.242044	0.317492
908	C	0.965982	0.258689	0.994553
909	C	0.931361	0.241352	0.004266
910	C	0.914848	0.205891	0.009746
911	C	0.930696	0.18776	0.32761
912	C	0.964445	0.206162	0.310853
913	H	0.97788	0.284217	0.997928
914	N	0.884025	0.190251	0.030057
915	C	0.520727	0.26092	0.318856
916	C	0.540802	0.296871	0.313126
917	C	0.573321	0.315241	0.333607
918	C	0.588194	0.296974	0.018536
919	C	0.572721	0.261811	0.011142
920	C	0.538918	0.244353	0.997289
921	N	0.617038	0.312006	0.043375
922	H	0.527232	0.218785	0.999701
923	N	0.976545	0.189943	0.285098
924	N	0.529937	0.313205	0.28548
925	H	0.496331	0.202732	0.266476
926	H	0.963034	0.166163	0.277969
927	H	0.543221	0.337217	0.279694
928	H	0.626063	0.33474	0.387327
929	H	0.623854	0.29852	0.060527
930	H	0.873274	0.166934	0.371681
931	H	0.876005	0.203195	0.045927
932	C	0.761852	0.242912	0.320684
933	C	0.74575	0.208035	0.998313
934	C	0.763682	0.192492	0.013471
935	C	0.798453	0.213091	0.023056
936	C	0.816465	0.246228	0.337975
937	C	0.797821	0.259278	0.315542
938	H	0.720187	0.193534	0.999477
939	N	0.813327	0.200106	0.049831
940	C	0.742812	0.26022	0.320357
941	C	0.706832	0.243983	0.315156
942	C	0.688464	0.258206	0.335433
943	C	0.706736	0.291609	0.019555
944	C	0.741719	0.311543	0.010964
945	C	0.759246	0.295254	0.997225
946	N	0.691781	0.305367	0.044703
947	H	0.784828	0.309476	0.998664
948	N	0.813854	0.286163	0.287342
949	N	0.690504	0.216363	0.288236
950	H	0.801108	0.292065	0.26691
951	H	0.838004	0.297601	0.282369
952	H	0.666428	0.205407	0.282798
953	H	0.703078	0.209873	0.268365
954	H	0.669556	0.291319	0.39007
955	H	0.705578	0.325931	0.061281
956	H	0.834656	0.21493	0.397155
957	H	0.799638	0.179007	0.065477
958	C	0.761861	0.020059	0.320086
959	C	0.796835	0.037935	0.997483
960	C	0.813558	0.071372	0.012952
961	C	0.794153	0.087025	0.021289
962	C	0.761315	0.073069	0.335673
963	C	0.746431	0.040558	0.315057
964	H	0.810508	0.025992	0.999045
965	N	0.807824	0.115126	0.047572
966	C	0.743837	0.483675	0.31962
967	C	0.759499	0.463444	0.313766
968	C	0.745014	0.430849	0.334031
969	C	0.711955	0.416277	0.019063
970	C	0.692294	0.431677	0.010911
971	C	0.708841	0.465486	0.996911
972	N	0.69827	0.38776	0.044534
973	H	0.694941	0.477185	0.99853
974	N	0.719069	0.030117	0.28785
975	N	0.786777	0.474302	0.286276
976	H	0.712334	0.511142	0.267712
977	H	0.708745	0.043804	0.282314
978	H	0.797118	0.460717	0.280088
979	H	0.793239	0.993395	0.266455
980	H	0.711845	0.378627	0.388698
981	H	0.678011	0.381207	0.061741
982	H	0.7947	0.125059	0.390879
983	H	0.827414	0.120677	0.065837
984	C	0.5934	0.247446	0.003655
985	N	0.615201	0.261854	0.302241
986	C	0.643416	0.260061	0.295453
987	C	0.653437	0.244931	0.995165
988	N	0.632236	0.23143	0.03078
989	C	0.602172	0.230532	0.036274
990	H	0.659376	0.274082	0.27025
991	C	0.584272	0.21537	0.078853
992	O	0.554122	0.216433	0.0876
993	H	0.601721	0.226918	0.106885
994	H	0.57699	0.188789	0.078126
995	H	0.560535	0.239257	0.097888
996	C	0.75566	0.346472	0.003052
997	N	0.740337	0.353287	0.302217
998	C	0.742065	0.383211	0.294943
999	C	0.758051	0.408895	0.99383
1000	N	0.772312	0.40173	0.02905
1001	C	0.77336	0.372662	0.034769
1002	H	0.727237	0.384646	0.270489
1003	C	0.789383	0.370548	0.0769
1004	O	0.788418	0.339435	0.086077
1005	H	0.778457	0.37693	0.105205
1006	H	0.815954	0.389782	0.075118
1007	H	0.765772	0.323212	0.097146
1008	C	0.65734	0.410786	0.002887
1009	N	0.65033	0.388969	0.301568
1010	C	0.620512	0.360573	0.29447
1011	C	0.595014	0.350357	0.993733
1012	N	0.602336	0.371514	0.029317
1013	C	0.631326	0.401705	0.035112
1014	H	0.618922	0.344712	0.269328
1015	C	0.633538	0.419502	0.0776
1016	O	0.664471	0.449894	0.086585
1017	H	0.627661	0.402085	0.105669
1018	H	0.613996	0.426446	0.076526
1019	H	0.681018	0.443782	0.097256
1020	C	0.912098	0.257546	0.99949
1021	N	0.889512	0.244424	0.298589
1022	C	0.861083	0.24622	0.294453
1023	C	0.851404	0.259331	0.997162
1024	N	0.87329	0.271554	0.032204
1025	C	0.903619	0.272717	0.034918
1026	H	0.844638	0.232957	0.269295
1027	C	0.921801	0.285735	0.077938
1028	O	0.951942	0.284232	0.084438
1029	H	0.904526	0.272871	0.105752
1030	H	0.929139	0.312301	0.079934
1031	H	0.945516	0.26095	0.092402
1032	C	0.750777	0.157735	0.00539
1033	N	0.766868	0.151499	0.305015
1034	C	0.76559	0.121785	0.297776
1035	C	0.748817	0.09547	0.995657
1036	N	0.733821	0.102197	0.030428
1037	C	0.732571	0.131141	0.03639
1038	H	0.780633	0.120585	0.273438
1039	C	0.715462	0.132576	0.077835
1040	O	0.716243	0.163558	0.087341
1041	H	0.725647	0.125715	0.106517
1042	H	0.688949	0.113397	0.074795
1043	H	0.738656	0.179613	0.099264
1044	C	0.848378	0.091951	0.003703
1045	N	0.854676	0.111777	0.300266
1046	C	0.884312	0.139845	0.29087
1047	C	0.910239	0.152266	0.989869
1048	N	0.90347	0.133081	0.027475
1049	C	0.874833	0.10304	0.035617
1050	H	0.885192	0.154416	0.264437
1051	C	0.873389	0.087313	0.079603
1052	O	0.843296	0.056343	0.08963
1053	H	0.878322	0.105581	0.106265
1054	H	0.893839	0.081643	0.080181
1055	H	0.825985	0.061628	0.099492
1056	C	0.984351	0.242044	0.650827
1057	C	0.965982	0.258689	0.327886
1058	C	0.931361	0.241352	0.3376
1059	C	0.914848	0.205891	0.34308
1060	C	0.930696	0.18776	0.660943
1061	C	0.964445	0.206162	0.644187
1062	H	0.97788	0.284217	0.33126
1063	N	0.884025	0.190251	0.363392
1064	C	0.520727	0.26092	0.652189
1065	C	0.540802	0.296871	0.646459
1066	C	0.573321	0.315241	0.666941
1067	C	0.588194	0.296974	0.351871
1068	C	0.572721	0.261811	0.344475
1069	C	0.538918	0.244353	0.330622
1070	N	0.617038	0.312006	0.376709
1071	H	0.527232	0.218785	0.333034
1072	N	0.976545	0.189943	0.618433
1073	N	0.529937	0.313205	0.618814
1074	H	0.496331	0.202732	0.59981
1075	H	0.963034	0.166163	0.611304
1076	H	0.543221	0.337217	0.613027
1077	H	0.626063	0.33474	0.720662
1078	H	0.623854	0.29852	0.39386
1079	H	0.873274	0.166934	0.705013
1080	H	0.876005	0.203195	0.379261
1081	C	0.761852	0.242912	0.654019
1082	C	0.74575	0.208035	0.331644
1083	C	0.763682	0.192492	0.346803
1084	C	0.798453	0.213091	0.35639
1085	C	0.816465	0.246228	0.671307
1086	C	0.797821	0.259278	0.648877
1087	H	0.720187	0.193534	0.332809
1088	N	0.813327	0.200106	0.383165
1089	C	0.742812	0.26022	0.653691
1090	C	0.706832	0.243983	0.648489
1091	C	0.688464	0.258206	0.668768
1092	C	0.706736	0.291609	0.352888
1093	C	0.741719	0.311543	0.344297
1094	C	0.759246	0.295254	0.330559
1095	N	0.691781	0.305367	0.378037
1096	H	0.784828	0.309476	0.331995
1097	N	0.813854	0.286163	0.620677
1098	N	0.690504	0.216363	0.62157
1099	H	0.801108	0.292065	0.600245
1100	H	0.838004	0.297601	0.615703
1101	H	0.666428	0.205407	0.616131
1102	H	0.703078	0.209873	0.6017
1103	H	0.669556	0.291319	0.723401
1104	H	0.705578	0.325931	0.394616
1105	H	0.834656	0.21493	0.730486
1106	H	0.799638	0.179007	0.398811
1107	C	0.761861	0.020059	0.65342
1108	C	0.796835	0.037935	0.330814
1109	C	0.813558	0.071372	0.346284
1110	C	0.794153	0.087025	0.354624
1111	C	0.761315	0.073069	0.669009
1112	C	0.746431	0.040558	0.648392
1113	H	0.810508	0.025992	0.332379
1114	N	0.807824	0.115126	0.380907
1115	C	0.743837	0.483675	0.652955
1116	C	0.759499	0.463444	0.647101
1117	C	0.745014	0.430849	0.667366
1118	C	0.711955	0.416277	0.352396
1119	C	0.692294	0.431677	0.344244
1120	C	0.708841	0.465486	0.330244
1121	N	0.69827	0.38776	0.377866
1122	H	0.694941	0.477185	0.331863
1123	N	0.719069	0.030117	0.621182
1124	N	0.786777	0.474302	0.61961
1125	H	0.712334	0.511142	0.601048
1126	H	0.708745	0.043804	0.615646
1127	H	0.797118	0.460717	0.613421
1128	H	0.793239	0.993395	0.59979
1129	H	0.711845	0.378627	0.722033
1130	H	0.678011	0.381207	0.395074
1131	H	0.7947	0.125059	0.724214
1132	H	0.827414	0.120677	0.399172
1133	C	0.5934	0.247446	0.336988
1134	N	0.615201	0.261854	0.635573
1135	C	0.643416	0.260061	0.628786
1136	C	0.653437	0.244931	0.328498
1137	N	0.632236	0.23143	0.364114
1138	C	0.602172	0.230532	0.369607
1139	H	0.659376	0.274082	0.603583
1140	C	0.584272	0.21537	0.412188
1141	O	0.554122	0.216433	0.420932
1142	H	0.601721	0.226918	0.440217
1143	H	0.57699	0.188789	0.411459
1144	H	0.560535	0.239257	0.431222
1145	C	0.75566	0.346472	0.336386
1146	N	0.740337	0.353287	0.63555
1147	C	0.742065	0.383211	0.628277
1148	C	0.758051	0.408895	0.327163
1149	N	0.772312	0.40173	0.362385
1150	C	0.77336	0.372662	0.368102
1151	H	0.727237	0.384646	0.603824
1152	C	0.789383	0.370548	0.410234
1153	O	0.788418	0.339435	0.41941
1154	H	0.778457	0.37693	0.438538
1155	H	0.815954	0.389782	0.408451
1156	H	0.765772	0.323212	0.43048
1157	C	0.65734	0.410786	0.336222
1158	N	0.65033	0.388969	0.634901
1159	C	0.620512	0.360573	0.627802
1160	C	0.595014	0.350357	0.327065
1161	N	0.602336	0.371514	0.362652
1162	C	0.631326	0.401705	0.368446
1163	H	0.618922	0.344712	0.602663
1164	C	0.633538	0.419502	0.410934
1165	O	0.664471	0.449894	0.419919
1166	H	0.627661	0.402085	0.439003
1167	H	0.613996	0.426446	0.40986
1168	H	0.681018	0.443782	0.43059
1169	C	0.912098	0.257546	0.332822
1170	N	0.889512	0.244424	0.631924
1171	C	0.861083	0.24622	0.627786
1172	C	0.851404	0.259331	0.330496
1173	N	0.87329	0.271554	0.365539
1174	C	0.903619	0.272717	0.368252
1175	H	0.844638	0.232957	0.60263
1176	C	0.921801	0.285735	0.411271
1177	O	0.951942	0.284232	0.417771
1178	H	0.904526	0.272871	0.439087
1179	H	0.929139	0.312301	0.413269
1180	H	0.945516	0.26095	0.425736
1181	C	0.750777	0.157735	0.338724
1182	N	0.766868	0.151499	0.63835
1183	C	0.76559	0.121785	0.631111
1184	C	0.748817	0.09547	0.32899
1185	N	0.733821	0.102197	0.363763
1186	C	0.732571	0.131141	0.369724
1187	H	0.780633	0.120585	0.606771
1188	C	0.715462	0.132576	0.411168
1189	O	0.716243	0.163558	0.420675
1190	H	0.725647	0.125715	0.439849
1191	H	0.688949	0.113397	0.408127
1192	H	0.738656	0.179613	0.432597
1193	C	0.848378	0.091951	0.337038
1194	N	0.854676	0.111777	0.6336
1195	C	0.884312	0.139845	0.624203
1196	C	0.910239	0.152266	0.3232
1197	N	0.90347	0.133081	0.360809
1198	C	0.874833	0.10304	0.368951
1199	H	0.885192	0.154416	0.597769
1200	C	0.873389	0.087313	0.412937
1201	O	0.843296	0.056343	0.422963
1202	H	0.878322	0.105581	0.439599
1203	H	0.893839	0.081643	0.413513
1204	H	0.825985	0.061628	0.432825
1205	C	0.984351	0.242044	0.984159
1206	C	0.965982	0.258689	0.661221
1207	C	0.931361	0.241352	0.670932
1208	C	0.914848	0.205891	0.676415
1209	C	0.930696	0.18776	0.994278
1210	C	0.964445	0.206162	0.977522
1211	H	0.97788	0.284217	0.664593
1212	N	0.884025	0.190251	0.696723
1213	C	0.520727	0.26092	0.985524
1214	C	0.540802	0.296871	0.979794
1215	C	0.573321	0.315241	0.000273
1216	C	0.588194	0.296974	0.685203
1217	C	0.572721	0.261811	0.67781
1218	C	0.538918	0.244353	0.663957
1219	N	0.617038	0.312006	0.710041
1220	H	0.527232	0.218785	0.666369
1221	N	0.976545	0.189943	0.951768
1222	N	0.529937	0.313205	0.952149
1223	H	0.496331	0.202732	0.933145
1224	H	0.963034	0.166163	0.944636
1225	H	0.543221	0.337217	0.946362
1226	H	0.626063	0.33474	0.053994
1227	H	0.623854	0.29852	0.727195
1228	H	0.873274	0.166934	0.038346
1229	H	0.876005	0.203195	0.712593
1230	C	0.761852	0.242912	0.98735
1231	C	0.74575	0.208035	0.664978
1232	C	0.763682	0.192492	0.680138
1233	C	0.798453	0.213091	0.689725
1234	C	0.816465	0.246228	0.00464
1235	C	0.797821	0.259278	0.982209
1236	H	0.720187	0.193534	0.666142
1237	N	0.813327	0.200106	0.7165
1238	C	0.742812	0.26022	0.987026
1239	C	0.706832	0.243983	0.981824
1240	C	0.688464	0.258206	0.0021
1241	C	0.706736	0.291609	0.686223
1242	C	0.741719	0.311543	0.677632
1243	C	0.759246	0.295254	0.663894
1244	N	0.691781	0.305367	0.711369
1245	H	0.784828	0.309476	0.665329
1246	N	0.813854	0.286163	0.954009
1247	N	0.690504	0.216363	0.954902
1248	H	0.801108	0.292065	0.933577
1249	H	0.838004	0.297601	0.949038
1250	H	0.666428	0.205407	0.949466
1251	H	0.703078	0.209873	0.935032
1252	H	0.669556	0.291319	0.056735
1253	H	0.705578	0.325931	0.727947
1254	H	0.834656	0.21493	0.06382
1255	H	0.799638	0.179007	0.732146
1256	C	0.761861	0.020059	0.986755
1257	C	0.796835	0.037935	0.664148
1258	C	0.813558	0.071372	0.679619
1259	C	0.794153	0.087025	0.687956
1260	C	0.761315	0.073069	0.002341
1261	C	0.746431	0.040558	0.981724
1262	H	0.810508	0.025992	0.665714
1263	N	0.807824	0.115126	0.714239
1264	C	0.743837	0.483675	0.986287
1265	C	0.759499	0.463444	0.980433
1266	C	0.745014	0.430849	0.000698
1267	C	0.711955	0.416277	0.685731
1268	C	0.692294	0.431677	0.677579
1269	C	0.708841	0.465486	0.663579
1270	N	0.69827	0.38776	0.711201
1271	H	0.694941	0.477185	0.665198
1272	N	0.719069	0.030117	0.954517
1273	N	0.786777	0.474302	0.952945
1274	H	0.712334	0.511142	0.934379
1275	H	0.708745	0.043804	0.948981
1276	H	0.797118	0.460717	0.946757
1277	H	0.793239	0.993395	0.933122
1278	H	0.711845	0.378627	0.055366
1279	H	0.678011	0.381207	0.728409
1280	H	0.7947	0.125059	0.057546
1281	H	0.827414	0.120677	0.732504
1282	C	0.5934	0.247446	0.670323
1283	N	0.615201	0.261854	0.968908
1284	C	0.643416	0.260061	0.962121
1285	C	0.653437	0.244931	0.661833
1286	N	0.632236	0.23143	0.697449
1287	C	0.602172	0.230532	0.702942
1288	H	0.659376	0.274082	0.936918
1289	C	0.584272	0.21537	0.74552
1290	O	0.554122	0.216433	0.754267
1291	H	0.601721	0.226918	0.773553
1292	H	0.57699	0.188789	0.744794
1293	H	0.560535	0.239257	0.764557
1294	C	0.75566	0.346472	0.669721
1295	N	0.740337	0.353287	0.968885
1296	C	0.742065	0.383211	0.961609
1297	C	0.758051	0.408895	0.660498
1298	N	0.772312	0.40173	0.695717
1299	C	0.77336	0.372662	0.701437
1300	H	0.727237	0.384646	0.937156
1301	C	0.789383	0.370548	0.743566
1302	O	0.788418	0.339435	0.752745
1303	H	0.778457	0.37693	0.771873
1304	H	0.815954	0.389782	0.741787
1305	H	0.765772	0.323212	0.763815
1306	C	0.65734	0.410786	0.669554
1307	N	0.65033	0.388969	0.968236
1308	C	0.620512	0.360573	0.961138
1309	C	0.595014	0.350357	0.660398
1310	N	0.602336	0.371514	0.695984
1311	C	0.631326	0.401705	0.701778
1312	H	0.618922	0.344712	0.935995
1313	C	0.633538	0.419502	0.744269
1314	O	0.664471	0.449894	0.753254
1315	H	0.627661	0.402085	0.772338
1316	H	0.613996	0.426446	0.743195
1317	H	0.681018	0.443782	0.763925
1318	C	0.912098	0.257546	0.666155
1319	N	0.889512	0.244424	0.965255
1320	C	0.861083	0.24622	0.961121
1321	C	0.851404	0.259331	0.66383
1322	N	0.87329	0.271554	0.698871
1323	C	0.903619	0.272717	0.701587
1324	H	0.844638	0.232957	0.935962
1325	C	0.921801	0.285735	0.744607
1326	O	0.951942	0.284232	0.751106
1327	H	0.904526	0.272871	0.772418
1328	H	0.929139	0.312301	0.7466
1329	H	0.945516	0.26095	0.759071
1330	C	0.750777	0.157735	0.672056
1331	N	0.766868	0.151499	0.971682
1332	C	0.76559	0.121785	0.964443
1333	C	0.748817	0.09547	0.662325
1334	N	0.733821	0.102197	0.697095
1335	C	0.732571	0.131141	0.703059
1336	H	0.780633	0.120585	0.940106
1337	C	0.715462	0.132576	0.744503
1338	O	0.716243	0.163558	0.75401
1339	H	0.725647	0.125715	0.773185
1340	H	0.688949	0.113397	0.741462
1341	H	0.738656	0.179613	0.765932
1342	C	0.848378	0.091951	0.67037
1343	N	0.854676	0.111777	0.966935
1344	C	0.884312	0.139845	0.957538
1345	C	0.910239	0.152266	0.656534
1346	N	0.90347	0.133081	0.694144
1347	C	0.874833	0.10304	0.702287
1348	H	0.885192	0.154416	0.931104
1349	C	0.873389	0.087313	0.746269
1350	O	0.843296	0.056343	0.756298
1351	H	0.878322	0.105581	0.772934
1352	H	0.893839	0.081643	0.746848
1353	H	0.825985	0.061628	0.76616
1354	C	0.98435	0.742044	0.317492
1355	C	0.965982	0.758688	0.994553
1356	C	0.93136	0.741352	0.004266
1357	C	0.914847	0.705892	0.009746
1358	C	0.930697	0.68776	0.32761
1359	C	0.964446	0.706161	0.310853
1360	H	0.977881	0.784216	0.997928
1361	N	0.884024	0.69025	0.030057
1362	C	0.520725	0.760919	0.318856
1363	C	0.540802	0.796872	0.313126
1364	C	0.573321	0.815241	0.333607
1365	C	0.588193	0.796973	0.018536
1366	C	0.572722	0.761813	0.011142
1367	C	0.538918	0.744353	0.997289
1368	N	0.617038	0.812006	0.043375
1369	H	0.52723	0.718785	0.999701
1370	N	0.976546	0.689943	0.285098
1371	N	0.529937	0.813204	0.28548
1372	H	0.496331	0.702732	0.266476
1373	H	0.963035	0.666162	0.277969
1374	H	0.543221	0.837219	0.279694
1375	H	0.626064	0.834742	0.387327
1376	H	0.623854	0.798519	0.060527
1377	H	0.873273	0.666935	0.371681
1378	H	0.876006	0.703196	0.045927
1379	C	0.761854	0.742913	0.320684
1380	C	0.745751	0.708034	0.998313
1381	C	0.76368	0.692491	0.013471
1382	C	0.798451	0.71309	0.023056
1383	C	0.816464	0.746229	0.337975
1384	C	0.797821	0.75928	0.315542
1385	H	0.720186	0.693533	0.999477
1386	N	0.813327	0.700107	0.049831
1387	C	0.74281	0.760219	0.320357
1388	C	0.706833	0.743983	0.315156
1389	C	0.688465	0.758205	0.335433
1390	C	0.706734	0.791608	0.019555
1391	C	0.741718	0.811542	0.010964
1392	C	0.759244	0.795254	0.997225
1393	N	0.691782	0.805367	0.044703
1394	H	0.784826	0.809475	0.998664
1395	N	0.813854	0.786163	0.287342
1396	N	0.690502	0.716363	0.288236
1397	H	0.801107	0.792064	0.26691
1398	H	0.838005	0.7976	0.282369
1399	H	0.666427	0.705409	0.282798
1400	H	0.703077	0.709872	0.268365
1401	H	0.669555	0.791319	0.39007
1402	H	0.705578	0.825933	0.061281
1403	H	0.834655	0.71493	0.397155
1404	H	0.799637	0.679007	0.065477
1405	C	0.761859	0.520059	0.320086
1406	C	0.796834	0.537934	0.997483
1407	C	0.813557	0.571373	0.012952
1408	C	0.794154	0.587024	0.021289
1409	C	0.761314	0.573069	0.335673
1410	C	0.746431	0.540557	0.315057
1411	H	0.810507	0.525991	0.999045
1412	N	0.807823	0.615126	0.047572
1413	C	0.743838	0.983674	0.31962
1414	C	0.759498	0.963443	0.313766
1415	C	0.745014	0.930848	0.334031
1416	C	0.711953	0.916276	0.019063
1417	C	0.692295	0.931676	0.010911
1418	C	0.708839	0.965485	0.996911
1419	N	0.69827	0.887762	0.044534
1420	H	0.694943	0.977187	0.99853
1421	N	0.719068	0.530117	0.28785
1422	N	0.786777	0.974304	0.286276
1423	H	0.712335	0.011142	0.267712
1424	H	0.708747	0.543805	0.282314
1425	H	0.797116	0.960717	0.280088
1426	H	0.793239	0.493396	0.266455
1427	H	0.711847	0.878628	0.388698
1428	H	0.678011	0.881209	0.061741
1429	H	0.794699	0.625058	0.390879
1430	H	0.827413	0.620677	0.065837
1431	C	0.593401	0.747445	0.003655
1432	N	0.615203	0.761855	0.302241
1433	C	0.643415	0.76006	0.295453
1434	C	0.653437	0.744932	0.995165
1435	N	0.632235	0.73143	0.03078
1436	C	0.602171	0.730532	0.036274
1437	H	0.659377	0.774081	0.27025
1438	C	0.584271	0.715371	0.078853
1439	O	0.554121	0.716433	0.0876
1440	H	0.601723	0.726919	0.106885
1441	H	0.576988	0.688788	0.078126
1442	H	0.560535	0.739258	0.097888
1443	C	0.75566	0.846474	0.003052
1444	N	0.740336	0.853286	0.302217
1445	C	0.742063	0.88321	0.294943
1446	C	0.758051	0.908897	0.99383
1447	N	0.77231	0.90173	0.02905
1448	C	0.773361	0.872662	0.034769
1449	H	0.727235	0.884645	0.270489
1450	C	0.789382	0.870547	0.0769
1451	O	0.788416	0.839435	0.086077
1452	H	0.778457	0.876931	0.105205
1453	H	0.815953	0.889781	0.075118
1454	H	0.765773	0.823211	0.097146
1455	C	0.65734	0.910785	0.002887
1456	N	0.65033	0.888968	0.301568
1457	C	0.620514	0.860575	0.29447
1458	C	0.595013	0.850356	0.993733
1459	N	0.602334	0.871514	0.029317
1460	C	0.631325	0.901704	0.035112
1461	H	0.618922	0.844714	0.269328
1462	C	0.633537	0.919501	0.0776
1463	O	0.664472	0.949896	0.086585
1464	H	0.627663	0.902087	0.105669
1465	H	0.613996	0.926445	0.076526
1466	H	0.681017	0.943783	0.097256
1467	C	0.912098	0.757548	0.99949
1468	N	0.889513	0.744424	0.298589
1469	C	0.861083	0.746219	0.294453
1470	C	0.851402	0.75933	0.997162
1471	N	0.873288	0.771553	0.032204
1472	C	0.903617	0.772716	0.034918
1473	H	0.844636	0.732956	0.269295
1474	C	0.921801	0.785737	0.077938
1475	O	0.951941	0.784232	0.084438
1476	H	0.904525	0.77287	0.105752
1477	H	0.92914	0.812303	0.079934
1478	H	0.945518	0.760952	0.092402
1479	C	0.750777	0.657736	0.00539
1480	N	0.766867	0.6515	0.305015
1481	C	0.765591	0.621785	0.297776
1482	C	0.748817	0.595471	0.995657
1483	N	0.73382	0.602198	0.030428
1484	C	0.732569	0.63114	0.03639
1485	H	0.780633	0.620586	0.273438
1486	C	0.71546	0.632575	0.077835
1487	O	0.716242	0.663559	0.087341
1488	H	0.725646	0.625715	0.106517
1489	H	0.688948	0.613396	0.074795
1490	H	0.738657	0.679613	0.099264
1491	C	0.848377	0.591951	0.003703
1492	N	0.854675	0.611777	0.300266
1493	C	0.884314	0.639846	0.29087
1494	C	0.910237	0.652265	0.989869
1495	N	0.903469	0.633081	0.027475
1496	C	0.874832	0.603039	0.035617
1497	H	0.88519	0.654415	0.264437
1498	C	0.873391	0.587314	0.079603
1499	O	0.843295	0.556343	0.08963
1500	H	0.878321	0.605582	0.106265
1501	H	0.893838	0.581642	0.080181
1502	H	0.825984	0.56163	0.099492
1503	C	0.98435	0.742044	0.650827
1504	C	0.965982	0.758688	0.327886
1505	C	0.93136	0.741352	0.3376
1506	C	0.914847	0.705892	0.34308
1507	C	0.930697	0.68776	0.660943
1508	C	0.964446	0.706161	0.644187
1509	H	0.977881	0.784216	0.33126
1510	N	0.884024	0.69025	0.363392
1511	C	0.520725	0.760919	0.652189
1512	C	0.540802	0.796872	0.646462
1513	C	0.573321	0.815241	0.666941
1514	C	0.588193	0.796973	0.351871
1515	C	0.572722	0.761813	0.344475
1516	C	0.538918	0.744353	0.330622
1517	N	0.617038	0.812006	0.376709
1518	H	0.52723	0.718785	0.333034
1519	N	0.976546	0.689943	0.618433
1520	N	0.529937	0.813204	0.618814
1521	H	0.496331	0.702732	0.59981
1522	H	0.963035	0.666162	0.611304
1523	H	0.543221	0.837219	0.613027
1524	H	0.626064	0.834742	0.720662
1525	H	0.623854	0.798519	0.39386
1526	H	0.873273	0.666935	0.705013
1527	H	0.876006	0.703196	0.379261
1528	C	0.761854	0.742913	0.654019
1529	C	0.745751	0.708034	0.331644
1530	C	0.76368	0.692491	0.346803
1531	C	0.798451	0.71309	0.35639
1532	C	0.816464	0.746229	0.671307
1533	C	0.797821	0.75928	0.648877
1534	H	0.720186	0.693533	0.332809
1535	N	0.813327	0.700107	0.383165
1536	C	0.74281	0.760219	0.653691
1537	C	0.706833	0.743983	0.648489
1538	C	0.688465	0.758205	0.668768
1539	C	0.706734	0.791608	0.352888
1540	C	0.741718	0.811542	0.344297
1541	C	0.759244	0.795254	0.330559
1542	N	0.691782	0.805367	0.378037
1543	H	0.784826	0.809475	0.331995
1544	N	0.813854	0.786163	0.620677
1545	N	0.690502	0.716363	0.62157
1546	H	0.801107	0.792064	0.600245
1547	H	0.838005	0.7976	0.615703
1548	H	0.666427	0.705409	0.616131
1549	H	0.703077	0.709872	0.6017
1550	H	0.669555	0.791319	0.723401
1551	H	0.705578	0.825933	0.394616
1552	H	0.834655	0.71493	0.730486
1553	H	0.799637	0.679007	0.398811
1554	C	0.761859	0.520059	0.65342
1555	C	0.796834	0.537934	0.330814
1556	C	0.813557	0.571373	0.346284
1557	C	0.794154	0.587024	0.354624
1558	C	0.761314	0.573069	0.669009
1559	C	0.746431	0.540557	0.648392
1560	H	0.810507	0.525991	0.332379
1561	N	0.807823	0.615126	0.380907
1562	C	0.743838	0.983674	0.652955
1563	C	0.759498	0.963443	0.647101
1564	C	0.745014	0.930848	0.667366
1565	C	0.711953	0.916276	0.352396
1566	C	0.692295	0.931676	0.344244
1567	C	0.708839	0.965485	0.330244
1568	N	0.69827	0.887762	0.377866
1569	H	0.694943	0.977187	0.331863
1570	N	0.719068	0.530117	0.621182
1571	N	0.786777	0.974304	0.61961
1572	H	0.712335	0.011142	0.601048
1573	H	0.708747	0.543805	0.615646
1574	H	0.797116	0.960717	0.613421
1575	H	0.793239	0.493396	0.59979
1576	H	0.711847	0.878628	0.722033
1577	H	0.678011	0.881209	0.395074
1578	H	0.794699	0.625058	0.724214
1579	H	0.827413	0.620677	0.399172
1580	C	0.593401	0.747445	0.336988
1581	N	0.615203	0.761855	0.635573
1582	C	0.643415	0.76006	0.628786
1583	C	0.653437	0.744932	0.328498
1584	N	0.632235	0.73143	0.364114
1585	C	0.602171	0.730532	0.369607
1586	H	0.659377	0.774081	0.603583
1587	C	0.584271	0.715371	0.412188
1588	O	0.554121	0.716433	0.420932
1589	H	0.601723	0.726919	0.440217
1590	H	0.576988	0.688788	0.411459
1591	H	0.560535	0.739258	0.431222
1592	C	0.75566	0.846474	0.336386
1593	N	0.740336	0.853286	0.63555
1594	C	0.742063	0.88321	0.628277
1595	C	0.758051	0.908897	0.327163
1596	N	0.77231	0.90173	0.362385
1597	C	0.773361	0.872662	0.368102
1598	H	0.727235	0.884645	0.603824
1599	C	0.789382	0.870547	0.410234
1600	O	0.788416	0.839435	0.41941
1601	H	0.778457	0.876931	0.438538
1602	H	0.815953	0.889781	0.408451
1603	H	0.765773	0.823211	0.43048
1604	C	0.65734	0.910785	0.336222
1605	N	0.65033	0.888968	0.634901
1606	C	0.620514	0.860575	0.627802
1607	C	0.595013	0.850356	0.327065
1608	N	0.602334	0.871514	0.362652
1609	C	0.631325	0.901704	0.368446
1610	H	0.618922	0.844714	0.602663
1611	C	0.633537	0.919501	0.410934
1612	O	0.664472	0.949896	0.419919
1613	H	0.627663	0.902087	0.439003
1614	H	0.613996	0.926445	0.40986
1615	H	0.681017	0.943783	0.43059
1616	C	0.912098	0.757548	0.332822
1617	N	0.889513	0.744424	0.631924
1618	C	0.861083	0.746219	0.627786
1619	C	0.851402	0.75933	0.330496
1620	N	0.873288	0.771553	0.365539
1621	C	0.903617	0.772716	0.368252
1622	H	0.844636	0.732956	0.60263
1623	C	0.921801	0.785737	0.411271
1624	O	0.951941	0.784232	0.417771
1625	H	0.904525	0.77287	0.439087
1626	H	0.92914	0.812303	0.413269
1627	H	0.945518	0.760952	0.425736
1628	C	0.750777	0.657736	0.338724
1629	N	0.766867	0.6515	0.63835
1630	C	0.765591	0.621785	0.631111
1631	C	0.748817	0.595471	0.32899
1632	N	0.73382	0.602198	0.363763
1633	C	0.732569	0.63114	0.369724
1634	H	0.780633	0.620586	0.606771
1635	C	0.71546	0.632575	0.411168
1636	O	0.716242	0.663559	0.420675
1637	H	0.725646	0.625715	0.439849
1638	H	0.688948	0.613396	0.408127
1639	H	0.738657	0.679613	0.432597
1640	C	0.848377	0.591951	0.337038
1641	N	0.854675	0.611777	0.6336
1642	C	0.884314	0.639846	0.624203
1643	C	0.910237	0.652265	0.3232
1644	N	0.903469	0.633081	0.360809
1645	C	0.874832	0.603039	0.368951
1646	H	0.88519	0.654415	0.597769
1647	C	0.873391	0.587314	0.412937
1648	O	0.843295	0.556343	0.422963
1649	H	0.878321	0.605582	0.439599
1650	H	0.893838	0.581642	0.413516
1651	H	0.825984	0.56163	0.432825
1652	C	0.98435	0.742044	0.984159
1653	C	0.965982	0.758688	0.661221
1654	C	0.93136	0.741352	0.670932
1655	C	0.914847	0.705892	0.676415
1656	C	0.930697	0.68776	0.994278
1657	C	0.964446	0.706161	0.977522
1658	H	0.977881	0.784216	0.664593
1659	N	0.884024	0.69025	0.696723
1660	C	0.520725	0.760919	0.985524
1661	C	0.540802	0.796872	0.979794
1662	C	0.573321	0.815241	0.000273
1663	C	0.588193	0.796973	0.685203
1664	C	0.572722	0.761813	0.67781
1665	C	0.538918	0.744353	0.663957
1666	N	0.617038	0.812006	0.710044
1667	H	0.52723	0.718785	0.666369
1668	N	0.976546	0.689943	0.951768
1669	N	0.529937	0.813204	0.952149
1670	H	0.496331	0.702732	0.933145
1671	H	0.963035	0.666162	0.944636
1672	H	0.543221	0.837219	0.946362
1673	H	0.626064	0.834742	0.053994
1674	H	0.623854	0.798519	0.727195
1675	H	0.873273	0.666935	0.038346
1676	H	0.876006	0.703196	0.712593
1677	C	0.761854	0.742913	0.98735
1678	C	0.745751	0.708034	0.664978
1679	C	0.76368	0.692491	0.680138
1680	C	0.798451	0.71309	0.689725
1681	C	0.816464	0.746229	0.00464
1682	C	0.797821	0.75928	0.982209
1683	H	0.720186	0.693533	0.666142
1684	N	0.813327	0.700107	0.7165
1685	C	0.74281	0.760219	0.987026
1686	C	0.706833	0.743983	0.981824
1687	C	0.688465	0.758205	0.0021
1688	C	0.706734	0.791608	0.686223
1689	C	0.741718	0.811542	0.677632
1690	C	0.759244	0.795254	0.663894
1691	N	0.691782	0.805367	0.711369
1692	H	0.784826	0.809475	0.665329
1693	N	0.813854	0.786163	0.954009
1694	N	0.690502	0.716363	0.954902
1695	H	0.801107	0.792064	0.933577
1696	H	0.838005	0.7976	0.949038
1697	H	0.666427	0.705409	0.949466
1698	H	0.703077	0.709872	0.935032
1699	H	0.669555	0.791319	0.056735
1700	H	0.705578	0.825933	0.727947
1701	H	0.834655	0.71493	0.06382
1702	H	0.799637	0.679007	0.732146
1703	C	0.761859	0.520059	0.986755
1704	C	0.796834	0.537934	0.664148
1705	C	0.813557	0.571373	0.679619
1706	C	0.794154	0.587024	0.687956
1707	C	0.761314	0.573069	0.002341
1708	C	0.746431	0.540557	0.981724
1709	H	0.810507	0.525991	0.665714
1710	N	0.807823	0.615126	0.714239
1711	C	0.743838	0.983674	0.986287
1712	C	0.759498	0.963443	0.980433
1713	C	0.745014	0.930848	0.000698
1714	C	0.711953	0.916276	0.685731
1715	C	0.692295	0.931676	0.677579
1716	C	0.708839	0.965485	0.663579
1717	N	0.69827	0.887762	0.711201
1718	H	0.694943	0.977187	0.665198
1719	N	0.719068	0.530117	0.954517
1720	N	0.786777	0.974304	0.952945
1721	H	0.712335	0.011142	0.934379
1722	H	0.708747	0.543805	0.948981
1723	H	0.797116	0.960717	0.946757
1724	H	0.793239	0.493396	0.933122
1725	H	0.711847	0.878628	0.055366
1726	H	0.678011	0.881209	0.728409
1727	H	0.794699	0.625058	0.057546
1728	H	0.827413	0.620677	0.732504
1729	C	0.593401	0.747445	0.670323
1730	N	0.615203	0.761855	0.968908
1731	C	0.643415	0.76006	0.962121
1732	C	0.653437	0.744932	0.661833
1733	N	0.632235	0.73143	0.697449
1734	C	0.602171	0.730532	0.702942
1735	H	0.659377	0.774081	0.936918
1736	C	0.584271	0.715371	0.74552
1737	O	0.554121	0.716433	0.754267
1738	H	0.601723	0.726919	0.773553
1739	H	0.576988	0.688788	0.744794
1740	H	0.560535	0.739258	0.764557
1741	C	0.75566	0.846474	0.669721
1742	N	0.740336	0.853286	0.968885
1743	C	0.742063	0.88321	0.961609
1744	C	0.758051	0.908897	0.660498
1745	N	0.77231	0.90173	0.695717
1746	C	0.773361	0.872662	0.701437
1747	H	0.727235	0.884645	0.937156
1748	C	0.789382	0.870547	0.743566
1749	O	0.788416	0.839435	0.752745
1750	H	0.778457	0.876931	0.771873
1751	H	0.815953	0.889781	0.741787
1752	H	0.765773	0.823211	0.763815
1753	C	0.65734	0.910785	0.669554
1754	N	0.65033	0.888968	0.968236
1755	C	0.620514	0.860575	0.961138
1756	C	0.595013	0.850356	0.660398
1757	N	0.602334	0.871514	0.695984
1758	C	0.631325	0.901704	0.701778
1759	H	0.618922	0.844714	0.935995
1760	C	0.633537	0.919501	0.744269
1761	O	0.664472	0.949896	0.753254
1762	H	0.627663	0.902087	0.772338
1763	H	0.613996	0.926445	0.743195
1764	H	0.681017	0.943783	0.763925
1765	C	0.912098	0.757548	0.666155
1766	N	0.889513	0.744424	0.965255
1767	C	0.861083	0.746219	0.961121
1768	C	0.851402	0.75933	0.66383
1769	N	0.873288	0.771553	0.698871
1770	C	0.903617	0.772716	0.701587
1771	H	0.844636	0.732956	0.935962
1772	C	0.921801	0.785737	0.744607
1773	O	0.951941	0.784232	0.751106
1774	H	0.904525	0.77287	0.772418
1775	H	0.92914	0.812303	0.7466
1776	H	0.945518	0.760952	0.759071
1777	C	0.750777	0.657736	0.672056
1778	N	0.766867	0.6515	0.971682
1779	C	0.765591	0.621785	0.964443
1780	C	0.748817	0.595471	0.662325
1781	N	0.73382	0.602198	0.697095
1782	C	0.732569	0.63114	0.703059
1783	H	0.780633	0.620586	0.940106
1784	C	0.71546	0.632575	0.744503
1785	O	0.716242	0.663559	0.75401
1786	H	0.725646	0.625715	0.773185
1787	H	0.688948	0.613396	0.741462
1788	H	0.738657	0.679613	0.765932
1789	C	0.848377	0.591951	0.67037
1790	N	0.854675	0.611777	0.966935
1791	C	0.884314	0.639846	0.957538
1792	C	0.910237	0.652265	0.656534
1793	N	0.903469	0.633081	0.694144
1794	C	0.874832	0.603039	0.702287
1795	H	0.88519	0.654415	0.931104
1796	C	0.873391	0.587314	0.746269
1797	O	0.843295	0.556343	0.756298
1798	H	0.878321	0.605582	0.772934
1799	H	0.893838	0.581642	0.746848
1800	H	0.825984	0.56163	0.76616
