data_C720H360N144O72_2018-02-15_10:35:37
#******************************************
#
# CIF file created by Zeo++
# Zeo++ is an open source package to
# analyze microporous materials
#
#*******************************************

_cell_length_a		46.3246   
_cell_length_b		46.3246   
_cell_length_c		29.5622   
_cell_angle_alpha		90   
_cell_angle_beta		90   
_cell_angle_gamma		120   

_symmetry_space_group_name_H-M		'P1'
_symmetry_Int_Tables_number		1
_symmetry_cell_setting		Monoclinic

loop_
_symmetry_equiv_pos_as_xyz
'+x,+y,+z'

loop_
_atom_site_label
_atom_site_type_symbol
_atom_site_fract_x
_atom_site_fract_y
_atom_site_fract_z
1	C	0.02923	0.266455	0.351344
2	C	0.048529	0.302189	0.349389
3	C	0.083171	0.320173	0.34033
4	C	0.099991	0.301877	0.335856
5	C	0.083206	0.266759	0.006961
6	C	0.048565	0.250058	0.016045
7	H	0.037437	0.316317	0.351641
8	O	0.134082	0.318932	0.334373
9	H	0.141521	0.322649	0.032765
10	H	0.037498	0.224837	0.018213
11	C	0.141649	0.237863	0.039984
12	C	0.111079	0.237977	0.039966
13	C	0.102055	0.250392	0.001965
14	N	0.12342	0.260106	0.29961
15	H	0.098552	0.234098	0.06989
16	H	0.150322	0.234071	0.069939
17	N	0.15154	0.260086	0.299609
18	C	0.101979	0.355389	0.002093
19	C	0.111072	0.376878	0.040053
20	C	0.141727	0.407478	0.040052
21	N	0.151469	0.395209	0.299666
22	H	0.150381	0.419978	0.069992
23	H	0.098639	0.368201	0.070028
24	N	0.123345	0.367075	0.299726
25	C	0.02923	0.266455	0.684675
26	C	0.048529	0.302189	0.682723
27	C	0.083171	0.320173	0.673664
28	C	0.099991	0.301877	0.669189
29	C	0.083206	0.266759	0.340296
30	C	0.048565	0.250058	0.349378
31	H	0.037437	0.316317	0.684972
32	O	0.134082	0.318932	0.667707
33	H	0.141521	0.322649	0.366099
34	H	0.037498	0.224837	0.351547
35	C	0.141649	0.237863	0.373318
36	C	0.111079	0.237977	0.373301
37	C	0.102055	0.250392	0.335298
38	N	0.12342	0.260106	0.632943
39	H	0.098552	0.234098	0.403224
40	H	0.150322	0.234071	0.403272
41	N	0.15154	0.260086	0.632943
42	C	0.101979	0.355389	0.335427
43	C	0.111072	0.376878	0.373385
44	C	0.141727	0.407478	0.373385
45	N	0.151469	0.395209	0.633001
46	H	0.150381	0.419978	0.403326
47	H	0.098639	0.368201	0.403363
48	N	0.123345	0.367075	0.633061
49	C	0.02923	0.266455	0.018009
50	C	0.048529	0.302189	0.016054
51	C	0.083171	0.320173	0.006998
52	C	0.099991	0.301877	0.002523
53	C	0.083206	0.266759	0.67363
54	C	0.048565	0.250058	0.682713
55	H	0.037437	0.316317	0.018306
56	O	0.134082	0.318932	0.001041
57	H	0.141521	0.322649	0.69943
58	H	0.037498	0.224837	0.684881
59	C	0.141649	0.237863	0.706652
60	C	0.111079	0.237977	0.706632
61	C	0.102055	0.250392	0.66863
62	N	0.12342	0.260106	0.966277
63	H	0.098552	0.234098	0.736555
64	H	0.150322	0.234071	0.736606
65	N	0.15154	0.260086	0.966277
66	C	0.101979	0.355389	0.668759
67	C	0.111072	0.376878	0.70672
68	C	0.141727	0.407478	0.70672
69	N	0.151469	0.395209	0.966335
70	H	0.150381	0.419978	0.73666
71	H	0.098639	0.368201	0.736694
72	N	0.123345	0.367075	0.966392
73	C	0.029231	0.766456	0.351344
74	C	0.048529	0.802191	0.349389
75	C	0.083171	0.820173	0.34033
76	C	0.09999	0.801877	0.335856
77	C	0.083206	0.766758	0.006961
78	C	0.048565	0.750057	0.016045
79	H	0.037435	0.816317	0.351641
80	O	0.134082	0.818934	0.334373
81	H	0.141523	0.82265	0.032765
82	H	0.037498	0.724837	0.018213
83	C	0.141649	0.737864	0.039984
84	C	0.111079	0.737978	0.039966
85	C	0.102055	0.750394	0.001965
86	N	0.12342	0.760105	0.29961
87	H	0.098552	0.734097	0.06989
88	H	0.150322	0.734072	0.069939
89	N	0.151541	0.760088	0.299609
90	C	0.101981	0.855391	0.002093
91	C	0.111072	0.87688	0.040053
92	C	0.141728	0.90748	0.040052
93	N	0.151471	0.895211	0.299666
94	H	0.150381	0.91998	0.069992
95	H	0.098641	0.868203	0.070028
96	N	0.123347	0.867076	0.299726
97	C	0.029231	0.766456	0.684675
98	C	0.048529	0.802191	0.682723
99	C	0.083171	0.820173	0.673664
100	C	0.09999	0.801877	0.669189
101	C	0.083206	0.766758	0.340296
102	C	0.048565	0.750057	0.349378
103	H	0.037435	0.816317	0.684972
104	O	0.134082	0.818934	0.667707
105	H	0.141523	0.82265	0.366099
106	H	0.037498	0.724837	0.351547
107	C	0.141649	0.737864	0.373318
108	C	0.111079	0.737978	0.373301
109	C	0.102055	0.750394	0.335298
110	N	0.12342	0.760105	0.632943
111	H	0.098552	0.734097	0.403224
112	H	0.150322	0.734072	0.403272
113	N	0.151541	0.760088	0.632943
114	C	0.101981	0.855391	0.335427
115	C	0.111072	0.87688	0.373385
116	C	0.141728	0.90748	0.373385
117	N	0.151471	0.895211	0.633001
118	H	0.150381	0.91998	0.403326
119	H	0.098641	0.868203	0.403363
120	N	0.123347	0.867076	0.633061
121	C	0.029231	0.766456	0.018009
122	C	0.048529	0.802191	0.016054
123	C	0.083171	0.820173	0.006998
124	C	0.09999	0.801877	0.002523
125	C	0.083206	0.766758	0.67363
126	C	0.048565	0.750057	0.682713
127	H	0.037435	0.816317	0.018306
128	O	0.134082	0.818934	0.001041
129	H	0.141523	0.82265	0.69943
130	H	0.037498	0.724837	0.684881
131	C	0.141649	0.737864	0.706652
132	C	0.111079	0.737978	0.706632
133	C	0.102055	0.750394	0.66863
134	N	0.12342	0.760105	0.966277
135	H	0.098552	0.734097	0.736555
136	H	0.150322	0.734072	0.736606
137	N	0.151541	0.760088	0.966277
138	C	0.101981	0.855391	0.668759
139	C	0.111072	0.87688	0.70672
140	C	0.141728	0.90748	0.70672
141	N	0.151471	0.895211	0.966335
142	H	0.150381	0.91998	0.73666
143	H	0.098641	0.868203	0.736694
144	N	0.123347	0.867076	0.966392
145	C	0.252012	0.266432	0.3513
146	C	0.216276	0.250023	0.349378
147	C	0.198322	0.266711	0.340303
148	C	0.216652	0.301833	0.335899
149	C	0.251766	0.320141	0.007015
150	C	0.268438	0.302164	0.016007
151	H	0.202133	0.224801	0.35154
152	O	0.199599	0.318877	0.334519
153	C	0.270123	0.248316	0.35133
154	C	0.253701	0.21258	0.016066
155	C	0.270392	0.194616	0.00709
156	H	0.195922	0.322594	0.03293
157	H	0.228475	0.198447	0.018138
158	C	0.252054	0.489343	0.351361
159	C	0.268459	0.470015	0.349429
160	C	0.251775	0.435375	0.340374
161	C	0.216658	0.418577	0.335919
162	C	0.198351	0.43539	0.007008
163	C	0.21632	0.470038	0.016049
164	O	0.199596	0.384486	0.334451
165	C	0.270186	0.025569	0.35132
166	C	0.270468	0.079522	0.340144
167	C	0.253787	0.044904	0.349395
168	H	0.228571	0.033839	0.351672
169	H	0.195912	0.37705	0.032844
170	H	0.202189	0.481133	0.018171
171	C	0.163094	0.250327	0.002015
172	C	0.268161	0.416548	0.002124
173	C	0.280621	0.4075	0.040049
174	C	0.280544	0.376836	0.040059
175	C	0.268168	0.355354	0.002103
176	N	0.258437	0.367027	0.299787
177	H	0.284435	0.368216	0.069997
178	H	0.284426	0.419963	0.070008
179	N	0.258427	0.395149	0.299798
180	C	0.163135	0.416561	0.002022
181	C	0.254112	0.098387	0.00189
182	C	0.241596	0.107292	0.039904
183	C	0.241632	0.137938	0.040029
184	C	0.253989	0.159394	0.002066
185	N	0.263747	0.147879	0.299617
186	H	0.237751	0.146537	0.069994
187	H	0.237817	0.094788	0.069822
188	N	0.263802	0.119777	0.299566
189	C	0.252012	0.266432	0.684634
190	C	0.216276	0.250023	0.682713
191	C	0.198322	0.266711	0.673637
192	C	0.216652	0.301833	0.669233
193	C	0.251766	0.320141	0.34035
194	C	0.268438	0.302164	0.349341
195	H	0.202133	0.224801	0.684874
196	O	0.199599	0.318877	0.667852
197	C	0.270123	0.248316	0.684664
198	C	0.253701	0.21258	0.349399
199	C	0.270392	0.194616	0.340424
200	H	0.195922	0.322594	0.366265
201	H	0.228475	0.198447	0.351472
202	C	0.252054	0.489343	0.684692
203	C	0.268459	0.470015	0.68276
204	C	0.251775	0.435375	0.673708
205	C	0.216658	0.418577	0.669253
206	C	0.198351	0.43539	0.340343
207	C	0.21632	0.470038	0.349382
208	O	0.199596	0.384486	0.667785
209	C	0.270186	0.025569	0.684654
210	C	0.270468	0.079522	0.673478
211	C	0.253787	0.044904	0.68273
212	H	0.228571	0.033839	0.685006
213	H	0.195912	0.37705	0.366177
214	H	0.202189	0.481133	0.351506
215	C	0.163094	0.250327	0.335348
216	C	0.268161	0.416548	0.335456
217	C	0.280621	0.4075	0.373382
218	C	0.280544	0.376836	0.373392
219	C	0.268168	0.355354	0.335437
220	N	0.258437	0.367027	0.633122
221	H	0.284435	0.368216	0.403332
222	H	0.284426	0.419963	0.403343
223	N	0.258427	0.395149	0.633132
224	C	0.163135	0.416561	0.335354
225	C	0.254112	0.098387	0.335225
226	C	0.241596	0.107292	0.373237
227	C	0.241632	0.137938	0.373362
228	C	0.253989	0.159394	0.335399
229	N	0.263747	0.147879	0.63295
230	H	0.237751	0.146537	0.403326
231	H	0.237817	0.094788	0.403156
232	N	0.263802	0.119777	0.632899
233	C	0.252012	0.266432	0.017968
234	C	0.216276	0.250023	0.016045
235	C	0.198322	0.266711	0.006971
236	C	0.216652	0.301833	0.002567
237	C	0.251766	0.320141	0.673684
238	C	0.268438	0.302164	0.682675
239	H	0.202133	0.224801	0.018206
240	O	0.199599	0.318877	0.001187
241	C	0.270123	0.248316	0.017997
242	C	0.253701	0.21258	0.682733
243	C	0.270392	0.194616	0.673759
244	H	0.195922	0.322594	0.699596
245	H	0.228475	0.198447	0.684807
246	C	0.252054	0.489343	0.018026
247	C	0.268459	0.470015	0.016094
248	C	0.251775	0.435375	0.007042
249	C	0.216658	0.418577	0.002587
250	C	0.198351	0.43539	0.673677
251	C	0.21632	0.470038	0.682716
252	O	0.199596	0.384486	0.001119
253	C	0.270186	0.025569	0.017986
254	C	0.270468	0.079522	0.006809
255	C	0.253787	0.044904	0.016062
256	H	0.228571	0.033839	0.018338
257	H	0.195912	0.37705	0.699511
258	H	0.202189	0.481133	0.684837
259	C	0.163094	0.250327	0.668681
260	C	0.268161	0.416548	0.668789
261	C	0.280621	0.4075	0.706716
262	C	0.280544	0.376836	0.706726
263	C	0.268168	0.355354	0.668773
264	N	0.258437	0.367027	0.966453
265	H	0.284435	0.368216	0.736663
266	H	0.284426	0.419963	0.736677
267	N	0.258427	0.395149	0.966463
268	C	0.163135	0.416561	0.668688
269	C	0.254112	0.098387	0.668559
270	C	0.241596	0.107292	0.706571
271	C	0.241632	0.137938	0.706696
272	C	0.253989	0.159394	0.668732
273	N	0.263747	0.147879	0.966284
274	H	0.237751	0.146537	0.73666
275	H	0.237817	0.094788	0.736487
276	N	0.263802	0.119777	0.966233
277	C	0.252012	0.766434	0.3513
278	C	0.216276	0.750023	0.349378
279	C	0.198323	0.766713	0.340303
280	C	0.216652	0.801834	0.335899
281	C	0.251766	0.82014	0.007015
282	C	0.268439	0.802166	0.016007
283	H	0.202134	0.724802	0.35154
284	O	0.199599	0.818876	0.334519
285	C	0.270124	0.748318	0.35133
286	C	0.253701	0.712581	0.016066
287	C	0.270392	0.694616	0.00709
288	H	0.195922	0.822595	0.03293
289	H	0.228475	0.698448	0.018138
290	C	0.252053	0.989343	0.351361
291	C	0.268461	0.970017	0.349429
292	C	0.251774	0.935375	0.340374
293	C	0.216657	0.918577	0.335919
294	C	0.198352	0.93539	0.007008
295	C	0.216319	0.970037	0.016049
296	O	0.199596	0.884485	0.334451
297	C	0.270185	0.525569	0.35132
298	C	0.270468	0.579522	0.340144
299	C	0.253787	0.544904	0.349395
300	H	0.228571	0.533839	0.351672
301	H	0.195914	0.877052	0.032844
302	H	0.202188	0.981132	0.018171
303	C	0.163095	0.750329	0.002015
304	C	0.26816	0.916548	0.002124
305	C	0.280622	0.907502	0.040049
306	C	0.280544	0.876838	0.040059
307	C	0.268167	0.855354	0.002103
308	N	0.258437	0.867029	0.299787
309	H	0.284436	0.868218	0.069997
310	H	0.284425	0.919963	0.070008
311	N	0.258428	0.895151	0.299798
312	C	0.163136	0.916563	0.002022
313	C	0.254113	0.598388	0.00189
314	C	0.241596	0.607292	0.039904
315	C	0.241632	0.637939	0.040029
316	C	0.253988	0.659393	0.002066
317	N	0.263747	0.64788	0.299617
318	H	0.237752	0.646539	0.069994
319	H	0.237818	0.594789	0.069822
320	N	0.263803	0.619778	0.299566
321	C	0.252012	0.766434	0.684634
322	C	0.216276	0.750023	0.682713
323	C	0.198323	0.766713	0.673637
324	C	0.216652	0.801834	0.669233
325	C	0.251766	0.82014	0.34035
326	C	0.268439	0.802166	0.349341
327	H	0.202134	0.724802	0.684874
328	O	0.199599	0.818876	0.667852
329	C	0.270124	0.748318	0.684664
330	C	0.253701	0.712581	0.349399
331	C	0.270392	0.694616	0.340424
332	H	0.195922	0.822595	0.366265
333	H	0.228475	0.698448	0.351472
334	C	0.252053	0.989343	0.684692
335	C	0.268461	0.970017	0.68276
336	C	0.251774	0.935375	0.673708
337	C	0.216657	0.918577	0.669253
338	C	0.198352	0.93539	0.340343
339	C	0.216319	0.970037	0.349382
340	O	0.199596	0.884485	0.667785
341	C	0.270185	0.525569	0.684654
342	C	0.270468	0.579522	0.673478
343	C	0.253787	0.544904	0.68273
344	H	0.228571	0.533839	0.685006
345	H	0.195914	0.877052	0.366177
346	H	0.202188	0.981132	0.351506
347	C	0.163095	0.750329	0.335348
348	C	0.26816	0.916548	0.335456
349	C	0.280622	0.907502	0.373382
350	C	0.280544	0.876838	0.373392
351	C	0.268167	0.855354	0.335437
352	N	0.258437	0.867029	0.633122
353	H	0.284436	0.868218	0.403332
354	H	0.284425	0.919963	0.403343
355	N	0.258428	0.895151	0.633132
356	C	0.163136	0.916563	0.335354
357	C	0.254113	0.598388	0.335225
358	C	0.241596	0.607292	0.373237
359	C	0.241632	0.637939	0.373362
360	C	0.253988	0.659393	0.335399
361	N	0.263747	0.64788	0.63295
362	H	0.237752	0.646539	0.403326
363	H	0.237818	0.594789	0.403156
364	N	0.263803	0.619778	0.632899
365	C	0.252012	0.766434	0.017968
366	C	0.216276	0.750023	0.016045
367	C	0.198323	0.766713	0.006971
368	C	0.216652	0.801834	0.002567
369	C	0.251766	0.82014	0.673684
370	C	0.268439	0.802166	0.682675
371	H	0.202134	0.724802	0.018206
372	O	0.199599	0.818876	0.001187
373	C	0.270124	0.748318	0.017997
374	C	0.253701	0.712581	0.682733
375	C	0.270392	0.694616	0.673759
376	H	0.195922	0.822595	0.699596
377	H	0.228475	0.698448	0.684807
378	C	0.252053	0.989343	0.018026
379	C	0.268461	0.970017	0.016094
380	C	0.251774	0.935375	0.007042
381	C	0.216657	0.918577	0.002587
382	C	0.198352	0.93539	0.673677
383	C	0.216319	0.970037	0.682716
384	O	0.199596	0.884485	0.001119
385	C	0.270185	0.525569	0.017986
386	C	0.270468	0.579522	0.006809
387	C	0.253787	0.544904	0.016062
388	H	0.228571	0.533839	0.018338
389	H	0.195914	0.877052	0.699511
390	H	0.202188	0.981132	0.684837
391	C	0.163095	0.750329	0.668681
392	C	0.26816	0.916548	0.668789
393	C	0.280622	0.907502	0.706716
394	C	0.280544	0.876838	0.706726
395	C	0.268167	0.855354	0.668773
396	N	0.258437	0.867029	0.966453
397	H	0.284436	0.868218	0.736663
398	H	0.284425	0.919963	0.736677
399	N	0.258428	0.895151	0.966463
400	C	0.163136	0.916563	0.668688
401	C	0.254113	0.598388	0.668559
402	C	0.241596	0.607292	0.706571
403	C	0.241632	0.637939	0.706696
404	C	0.253988	0.659393	0.668732
405	N	0.263747	0.64788	0.966284
406	H	0.237752	0.646539	0.73666
407	H	0.237818	0.594789	0.736487
408	N	0.263803	0.619778	0.966233
409	C	0.305518	0.212931	0.336084
410	C	0.32383	0.248047	0.340492
411	C	0.305859	0.264735	0.349419
412	O	0.322548	0.195867	0.334726
413	H	0.319994	0.289953	0.351648
414	H	0.326268	0.192202	0.033141
415	H	0.293655	0.316297	0.018292
416	H	0.293677	0.481085	0.351692
417	C	0.305918	0.044863	0.015961
418	C	0.323893	0.079488	0.006795
419	C	0.305576	0.096276	0.335547
420	O	0.322641	0.130371	0.334025
421	H	0.326366	0.137834	0.032406
422	H	0.320049	0.033777	0.018237
423	C	0.305518	0.212931	0.669419
424	C	0.32383	0.248047	0.673826
425	C	0.305859	0.264735	0.682753
426	O	0.322548	0.195867	0.668059
427	H	0.319994	0.289953	0.684982
428	H	0.326268	0.192202	0.366475
429	H	0.293655	0.316297	0.351624
430	H	0.293677	0.481085	0.685026
431	C	0.305918	0.044863	0.349294
432	C	0.323893	0.079488	0.34013
433	C	0.305576	0.096276	0.668881
434	O	0.322641	0.130371	0.667359
435	H	0.326366	0.137834	0.36574
436	H	0.320049	0.033777	0.35157
437	C	0.305518	0.212931	0.00275
438	C	0.32383	0.248047	0.007161
439	C	0.305859	0.264735	0.016087
440	O	0.322548	0.195867	0.001393
441	H	0.319994	0.289953	0.018316
442	H	0.326268	0.192202	0.699809
443	H	0.293655	0.316297	0.684959
444	H	0.293677	0.481085	0.018358
445	C	0.305918	0.044863	0.682628
446	C	0.323893	0.079488	0.673461
447	C	0.305576	0.096276	0.002215
448	O	0.322641	0.130371	0.000693
449	H	0.326366	0.137834	0.699075
450	H	0.320049	0.033777	0.684905
451	C	0.305518	0.712932	0.336084
452	C	0.323831	0.748048	0.340492
453	C	0.305859	0.764734	0.349419
454	O	0.32255	0.695868	0.334726
455	H	0.319994	0.789954	0.351648
456	H	0.326268	0.692201	0.033141
457	H	0.293656	0.816299	0.018292
458	H	0.293677	0.981087	0.351692
459	C	0.305919	0.544864	0.015961
460	C	0.323893	0.579489	0.006795
461	C	0.305576	0.596277	0.335547
462	O	0.32264	0.630371	0.334025
463	H	0.326365	0.637834	0.032406
464	H	0.32005	0.533777	0.018237
465	C	0.305518	0.712932	0.669419
466	C	0.323831	0.748048	0.673826
467	C	0.305859	0.764734	0.682753
468	O	0.32255	0.695868	0.668059
469	H	0.319994	0.789954	0.684982
470	H	0.326268	0.692201	0.366475
471	H	0.293656	0.816299	0.351624
472	H	0.293677	0.981087	0.685026
473	C	0.305919	0.544864	0.349294
474	C	0.323893	0.579489	0.34013
475	C	0.305576	0.596277	0.668881
476	O	0.32264	0.630371	0.667359
477	H	0.326365	0.637834	0.36574
478	H	0.32005	0.533777	0.35157
479	C	0.305518	0.712932	0.00275
480	C	0.323831	0.748048	0.007161
481	C	0.305859	0.764734	0.016087
482	O	0.32255	0.695868	0.001393
483	H	0.319994	0.789954	0.018316
484	H	0.326268	0.692201	0.699809
485	H	0.293656	0.816299	0.684959
486	H	0.293677	0.981087	0.018358
487	C	0.305919	0.544864	0.682628
488	C	0.323893	0.579489	0.673461
489	C	0.305576	0.596277	0.002215
490	O	0.32264	0.630371	0.000693
491	H	0.326365	0.637834	0.699075
492	H	0.32005	0.533777	0.684905
493	C	0.493002	0.248323	0.351334
494	C	0.473671	0.264725	0.01605
495	C	0.439035	0.248037	0.006947
496	C	0.422274	0.21293	0.335727
497	C	0.439071	0.194617	0.340225
498	C	0.473703	0.212587	0.349365
499	O	0.388176	0.195853	0.334255
500	H	0.484798	0.198459	0.351533
501	H	0.380735	0.192166	0.032646
502	H	0.484736	0.28994	0.018334
503	C	0.35904	0.264438	0.002195
504	C	0.380575	0.276859	0.040103
505	C	0.411169	0.276792	0.040042
506	C	0.420174	0.264396	0.002015
507	N	0.398786	0.254694	0.299702
508	H	0.42371	0.280668	0.069952
509	H	0.371941	0.280655	0.070088
510	N	0.370665	0.254707	0.299813
511	C	0.420248	0.159401	0.001887
512	C	0.41118	0.137968	0.039901
513	C	0.380505	0.107388	0.039893
514	C	0.359112	0.098308	0.001843
515	N	0.370807	0.119629	0.299451
516	H	0.371828	0.094903	0.069839
517	H	0.423603	0.146663	0.069879
518	N	0.398943	0.147752	0.299475
519	C	0.493002	0.248323	0.684668
520	C	0.473671	0.264725	0.349382
521	C	0.439035	0.248037	0.340282
522	C	0.422274	0.21293	0.66906
523	C	0.439071	0.194617	0.673559
524	C	0.473703	0.212587	0.682699
525	O	0.388176	0.195853	0.667589
526	H	0.484798	0.198459	0.684867
527	H	0.380735	0.192166	0.365981
528	H	0.484736	0.28994	0.351668
529	C	0.35904	0.264438	0.335526
530	C	0.380575	0.276859	0.373436
531	C	0.411169	0.276792	0.373375
532	C	0.420174	0.264396	0.335347
533	N	0.398786	0.254694	0.633038
534	H	0.42371	0.280668	0.403285
535	H	0.371941	0.280655	0.40342
536	N	0.370665	0.254707	0.633146
537	C	0.420248	0.159401	0.33522
538	C	0.41118	0.137968	0.373233
539	C	0.380505	0.107388	0.373226
540	C	0.359112	0.098308	0.335175
541	N	0.370807	0.119629	0.632784
542	H	0.371828	0.094903	0.403173
543	H	0.423603	0.146663	0.403214
544	N	0.398943	0.147752	0.632808
545	C	0.493002	0.248323	0.018001
546	C	0.473671	0.264725	0.682716
547	C	0.439035	0.248037	0.673617
548	C	0.422274	0.21293	0.002394
549	C	0.439071	0.194617	0.00689
550	C	0.473703	0.212587	0.016033
551	O	0.388176	0.195853	0.000923
552	H	0.484798	0.198459	0.018201
553	H	0.380735	0.192166	0.699312
554	H	0.484736	0.28994	0.684999
555	C	0.35904	0.264438	0.668861
556	C	0.380575	0.276859	0.70677
557	C	0.411169	0.276792	0.706709
558	C	0.420174	0.264396	0.668681
559	N	0.398786	0.254694	0.966369
560	H	0.42371	0.280668	0.736619
561	H	0.371941	0.280655	0.736755
562	N	0.370665	0.254707	0.96648
563	C	0.420248	0.159401	0.668553
564	C	0.41118	0.137968	0.706567
565	C	0.380505	0.107388	0.706561
566	C	0.359112	0.098308	0.668509
567	N	0.370807	0.119629	0.966118
568	H	0.371828	0.094903	0.736508
569	H	0.423603	0.146663	0.736545
570	N	0.398943	0.147752	0.966142
571	C	0.493003	0.748323	0.351334
572	C	0.473671	0.764724	0.01605
573	C	0.439035	0.748038	0.006947
574	C	0.422273	0.712932	0.335727
575	C	0.439071	0.694616	0.340225
576	C	0.473704	0.712588	0.349365
577	O	0.388176	0.695853	0.334255
578	H	0.484799	0.69846	0.351533
579	H	0.380735	0.692166	0.032646
580	H	0.484735	0.78994	0.018334
581	C	0.359039	0.764437	0.002195
582	C	0.380574	0.776858	0.040103
583	C	0.411167	0.776791	0.040042
584	C	0.420175	0.764398	0.002015
585	N	0.398785	0.754694	0.299702
586	H	0.423709	0.780667	0.069952
587	H	0.371942	0.780657	0.070088
588	N	0.370665	0.754709	0.299813
589	C	0.420249	0.659403	0.001887
590	C	0.411181	0.637969	0.039901
591	C	0.380506	0.607389	0.039893
592	C	0.359113	0.598309	0.001843
593	N	0.370807	0.619631	0.299451
594	H	0.371828	0.594904	0.069839
595	H	0.423604	0.646663	0.069879
596	N	0.398944	0.647752	0.299475
597	C	0.493003	0.748323	0.684668
598	C	0.473671	0.764724	0.349382
599	C	0.439035	0.748038	0.340282
600	C	0.422273	0.712932	0.66906
601	C	0.439071	0.694616	0.673559
602	C	0.473704	0.712588	0.682699
603	O	0.388176	0.695853	0.667589
604	H	0.484799	0.69846	0.684867
605	H	0.380735	0.692166	0.365981
606	H	0.484735	0.78994	0.351668
607	C	0.359039	0.764437	0.335526
608	C	0.380574	0.776858	0.373436
609	C	0.411167	0.776791	0.373375
610	C	0.420175	0.764398	0.335347
611	N	0.398785	0.754694	0.633038
612	H	0.423709	0.780667	0.403285
613	H	0.371942	0.780657	0.40342
614	N	0.370665	0.754709	0.633146
615	C	0.420249	0.659403	0.33522
616	C	0.411181	0.637969	0.373233
617	C	0.380506	0.607389	0.373226
618	C	0.359113	0.598309	0.335175
619	N	0.370807	0.619631	0.632784
620	H	0.371828	0.594904	0.403173
621	H	0.423604	0.646663	0.403214
622	N	0.398944	0.647752	0.632808
623	C	0.493003	0.748323	0.018001
624	C	0.473671	0.764724	0.682716
625	C	0.439035	0.748038	0.673617
626	C	0.422273	0.712932	0.002394
627	C	0.439071	0.694616	0.00689
628	C	0.473704	0.712588	0.016033
629	O	0.388176	0.695853	0.000923
630	H	0.484799	0.69846	0.018201
631	H	0.380735	0.692166	0.699312
632	H	0.484735	0.78994	0.684999
633	C	0.359039	0.764437	0.668861
634	C	0.380574	0.776858	0.70677
635	C	0.411167	0.776791	0.706709
636	C	0.420175	0.764398	0.668681
637	N	0.398785	0.754694	0.966369
638	H	0.423709	0.780667	0.736619
639	H	0.371942	0.780657	0.736755
640	N	0.370665	0.754709	0.96648
641	C	0.420249	0.659403	0.668553
642	C	0.411181	0.637969	0.706567
643	C	0.380506	0.607389	0.706561
644	C	0.359113	0.598309	0.668509
645	N	0.370807	0.619631	0.966118
646	H	0.371828	0.594904	0.736508
647	H	0.423604	0.646663	0.736545
648	N	0.398944	0.647752	0.966142
649	C	0.529231	0.266455	0.351344
650	C	0.548529	0.302189	0.349389
651	C	0.583171	0.320173	0.34033
652	C	0.599992	0.301877	0.335856
653	C	0.583205	0.266759	0.006961
654	C	0.548566	0.250058	0.016045
655	H	0.537437	0.316317	0.351641
656	O	0.634082	0.318932	0.334373
657	C	0.993002	0.248323	0.351334
658	C	0.973671	0.264725	0.01605
659	C	0.939035	0.248037	0.006947
660	C	0.922274	0.21293	0.335727
661	C	0.939071	0.194617	0.340225
662	C	0.973703	0.212587	0.349365
663	O	0.888176	0.195853	0.334255
664	H	0.984798	0.198459	0.351533
665	H	0.641521	0.322649	0.032765
666	H	0.880735	0.192166	0.032646
667	H	0.537497	0.224837	0.018213
668	H	0.984736	0.28994	0.018334
669	C	0.752013	0.266432	0.3513
670	C	0.716276	0.250023	0.349378
671	C	0.698321	0.266711	0.340303
672	C	0.716652	0.301833	0.335899
673	C	0.751767	0.320141	0.007015
674	C	0.768439	0.302164	0.016007
675	H	0.702133	0.224801	0.35154
676	O	0.699599	0.318877	0.334519
677	C	0.770124	0.248316	0.35133
678	C	0.753702	0.21258	0.016066
679	C	0.770393	0.194616	0.00709
680	C	0.805518	0.212931	0.336084
681	C	0.823831	0.248047	0.340492
682	C	0.805861	0.264735	0.349419
683	O	0.822551	0.195867	0.334726
684	H	0.819994	0.289953	0.351648
685	H	0.695922	0.322594	0.03293
686	H	0.826268	0.192202	0.033141
687	H	0.793656	0.316297	0.018292
688	H	0.728474	0.198447	0.018138
689	C	0.752054	0.489343	0.351361
690	C	0.768459	0.470015	0.349429
691	C	0.751775	0.435375	0.340374
692	C	0.716658	0.418577	0.335919
693	C	0.698351	0.43539	0.007008
694	C	0.71632	0.470038	0.016049
695	H	0.793676	0.481085	0.351692
696	O	0.699595	0.384486	0.334451
697	C	0.770186	0.025569	0.35132
698	C	0.805918	0.044863	0.015961
699	C	0.823893	0.079488	0.006795
700	C	0.805576	0.096276	0.335547
701	C	0.770468	0.079522	0.340144
702	C	0.753787	0.044904	0.349395
703	O	0.822641	0.130371	0.334025
704	H	0.728572	0.033839	0.351672
705	H	0.695912	0.37705	0.032844
706	H	0.826366	0.137834	0.032406
707	H	0.702189	0.481133	0.018171
708	H	0.820049	0.033777	0.018237
709	C	0.663094	0.250327	0.002015
710	C	0.641649	0.237863	0.039984
711	C	0.611079	0.237977	0.039966
712	C	0.602055	0.250392	0.001965
713	N	0.623419	0.260106	0.29961
714	H	0.598553	0.234098	0.06989
715	H	0.650323	0.234071	0.069939
716	N	0.651541	0.260086	0.299609
717	C	0.76816	0.416548	0.002124
718	C	0.780621	0.4075	0.040049
719	C	0.780544	0.376836	0.040059
720	C	0.768167	0.355354	0.002103
721	N	0.758437	0.367027	0.299787
722	H	0.784435	0.368216	0.069997
723	H	0.784426	0.419963	0.070008
724	N	0.758428	0.395149	0.299798
725	C	0.601979	0.355389	0.002093
726	C	0.611072	0.376878	0.040053
727	C	0.641726	0.407478	0.040052
728	C	0.663134	0.416561	0.002022
729	N	0.651469	0.395209	0.299666
730	H	0.650382	0.419978	0.069992
731	H	0.598639	0.368201	0.070028
732	N	0.623345	0.367075	0.299726
733	C	0.85904	0.264438	0.002195
734	C	0.880575	0.276859	0.040103
735	C	0.911169	0.276792	0.040042
736	C	0.920174	0.264396	0.002015
737	N	0.898786	0.254694	0.299702
738	H	0.92371	0.280668	0.069952
739	H	0.871941	0.280655	0.070088
740	N	0.870665	0.254707	0.299813
741	C	0.754113	0.098387	0.00189
742	C	0.741596	0.107292	0.039904
743	C	0.741631	0.137938	0.040029
744	C	0.753989	0.159394	0.002066
745	N	0.763746	0.147879	0.299617
746	H	0.737751	0.146537	0.069994
747	H	0.737818	0.094788	0.069822
748	N	0.763802	0.119777	0.299566
749	C	0.92025	0.159401	0.001887
750	C	0.91118	0.137968	0.039901
751	C	0.880505	0.107388	0.039893
752	C	0.859112	0.098308	0.001843
753	N	0.870807	0.119629	0.299451
754	H	0.871828	0.094903	0.069839
755	H	0.923603	0.146663	0.069879
756	N	0.898943	0.147752	0.299475
757	C	0.529231	0.266455	0.684675
758	C	0.548529	0.302189	0.682723
759	C	0.583171	0.320173	0.673664
760	C	0.599992	0.301877	0.669189
761	C	0.583205	0.266759	0.340296
762	C	0.548566	0.250058	0.349378
763	H	0.537437	0.316317	0.684972
764	O	0.634082	0.318932	0.667707
765	C	0.993002	0.248323	0.684668
766	C	0.973671	0.264725	0.349382
767	C	0.939035	0.248037	0.340282
768	C	0.922274	0.21293	0.66906
769	C	0.939071	0.194617	0.673559
770	C	0.973703	0.212587	0.682699
771	O	0.888176	0.195853	0.667589
772	H	0.984798	0.198459	0.684867
773	H	0.641521	0.322649	0.366099
774	H	0.880735	0.192166	0.365981
775	H	0.537497	0.224837	0.351547
776	H	0.984736	0.28994	0.351668
777	C	0.752013	0.266432	0.684634
778	C	0.716276	0.250023	0.682713
779	C	0.698321	0.266711	0.673637
780	C	0.716652	0.301833	0.669233
781	C	0.751767	0.320141	0.34035
782	C	0.768439	0.302164	0.349341
783	H	0.702133	0.224801	0.684874
784	O	0.699599	0.318877	0.667852
785	C	0.770124	0.248316	0.684664
786	C	0.753702	0.21258	0.349399
787	C	0.770393	0.194616	0.340424
788	C	0.805518	0.212931	0.669419
789	C	0.823831	0.248047	0.673826
790	C	0.805861	0.264735	0.682753
791	O	0.822551	0.195867	0.668059
792	H	0.819994	0.289953	0.684982
793	H	0.695922	0.322594	0.366265
794	H	0.826268	0.192202	0.366475
795	H	0.793656	0.316297	0.351624
796	H	0.728474	0.198447	0.351472
797	C	0.752054	0.489343	0.684692
798	C	0.768459	0.470015	0.68276
799	C	0.751775	0.435375	0.673708
800	C	0.716658	0.418577	0.669253
801	C	0.698351	0.43539	0.340343
802	C	0.71632	0.470038	0.349382
803	H	0.793676	0.481085	0.685026
804	O	0.699595	0.384486	0.667785
805	C	0.770186	0.025569	0.684654
806	C	0.805918	0.044863	0.349294
807	C	0.823893	0.079488	0.34013
808	C	0.805576	0.096276	0.668881
809	C	0.770468	0.079522	0.673478
810	C	0.753787	0.044904	0.68273
811	O	0.822641	0.130371	0.667359
812	H	0.728572	0.033839	0.685006
813	H	0.695912	0.37705	0.366177
814	H	0.826366	0.137834	0.36574
815	H	0.702189	0.481133	0.351506
816	H	0.820049	0.033777	0.35157
817	C	0.663094	0.250327	0.335348
818	C	0.641649	0.237863	0.373318
819	C	0.611079	0.237977	0.373301
820	C	0.602055	0.250392	0.335298
821	N	0.623419	0.260106	0.632943
822	H	0.598553	0.234098	0.403224
823	H	0.650323	0.234071	0.403272
824	N	0.651541	0.260086	0.632943
825	C	0.76816	0.416548	0.335456
826	C	0.780621	0.4075	0.373382
827	C	0.780544	0.376836	0.373392
828	C	0.768167	0.355354	0.335437
829	N	0.758437	0.367027	0.633122
830	H	0.784435	0.368216	0.403332
831	H	0.784426	0.419963	0.403343
832	N	0.758428	0.395149	0.633132
833	C	0.601979	0.355389	0.335427
834	C	0.611072	0.376878	0.373385
835	C	0.641726	0.407478	0.373385
836	C	0.663134	0.416561	0.335354
837	N	0.651469	0.395209	0.633001
838	H	0.650382	0.419978	0.403326
839	H	0.598639	0.368201	0.403363
840	N	0.623345	0.367075	0.633061
841	C	0.85904	0.264438	0.335526
842	C	0.880575	0.276859	0.373436
843	C	0.911169	0.276792	0.373375
844	C	0.920174	0.264396	0.335347
845	N	0.898786	0.254694	0.633038
846	H	0.92371	0.280668	0.403285
847	H	0.871941	0.280655	0.40342
848	N	0.870665	0.254707	0.633146
849	C	0.754113	0.098387	0.335225
850	C	0.741596	0.107292	0.373237
851	C	0.741631	0.137938	0.373362
852	C	0.753989	0.159394	0.335399
853	N	0.763746	0.147879	0.63295
854	H	0.737751	0.146537	0.403326
855	H	0.737818	0.094788	0.403156
856	N	0.763802	0.119777	0.632899
857	C	0.92025	0.159401	0.33522
858	C	0.91118	0.137968	0.373233
859	C	0.880505	0.107388	0.373226
860	C	0.859112	0.098308	0.335175
861	N	0.870807	0.119629	0.632784
862	H	0.871828	0.094903	0.403173
863	H	0.923603	0.146663	0.403214
864	N	0.898943	0.147752	0.632808
865	C	0.529231	0.266455	0.018009
866	C	0.548529	0.302189	0.016054
867	C	0.583171	0.320173	0.006998
868	C	0.599992	0.301877	0.002523
869	C	0.583205	0.266759	0.67363
870	C	0.548566	0.250058	0.682713
871	H	0.537437	0.316317	0.018306
872	O	0.634082	0.318932	0.001041
873	C	0.993002	0.248323	0.018001
874	C	0.973671	0.264725	0.682716
875	C	0.939035	0.248037	0.673617
876	C	0.922274	0.21293	0.002394
877	C	0.939071	0.194617	0.00689
878	C	0.973703	0.212587	0.016033
879	O	0.888176	0.195853	0.000923
880	H	0.984798	0.198459	0.018201
881	H	0.641521	0.322649	0.69943
882	H	0.880735	0.192166	0.699312
883	H	0.537497	0.224837	0.684881
884	H	0.984736	0.28994	0.684999
885	C	0.752013	0.266432	0.017968
886	C	0.716276	0.250023	0.016045
887	C	0.698321	0.266711	0.006971
888	C	0.716652	0.301833	0.002567
889	C	0.751767	0.320141	0.673684
890	C	0.768439	0.302164	0.682675
891	H	0.702133	0.224801	0.018206
892	O	0.699599	0.318877	0.001187
893	C	0.770124	0.248316	0.017997
894	C	0.753702	0.21258	0.682733
895	C	0.770393	0.194616	0.673759
896	C	0.805518	0.212931	0.00275
897	C	0.823831	0.248047	0.007161
898	C	0.805861	0.264735	0.016087
899	O	0.822551	0.195867	0.001393
900	H	0.819994	0.289953	0.018316
901	H	0.695922	0.322594	0.699596
902	H	0.826268	0.192202	0.699809
903	H	0.793656	0.316297	0.684959
904	H	0.728474	0.198447	0.684807
905	C	0.752054	0.489343	0.018026
906	C	0.768459	0.470015	0.016094
907	C	0.751775	0.435375	0.007042
908	C	0.716658	0.418577	0.002587
909	C	0.698351	0.43539	0.673677
910	C	0.71632	0.470038	0.682716
911	H	0.793676	0.481085	0.018358
912	O	0.699595	0.384486	0.001119
913	C	0.770186	0.025569	0.017986
914	C	0.805918	0.044863	0.682628
915	C	0.823893	0.079488	0.673461
916	C	0.805576	0.096276	0.002215
917	C	0.770468	0.079522	0.006809
918	C	0.753787	0.044904	0.016062
919	O	0.822641	0.130371	0.000693
920	H	0.728572	0.033839	0.018338
921	H	0.695912	0.37705	0.699511
922	H	0.826366	0.137834	0.699075
923	H	0.702189	0.481133	0.684837
924	H	0.820049	0.033777	0.684905
925	C	0.663094	0.250327	0.668681
926	C	0.641649	0.237863	0.706652
927	C	0.611079	0.237977	0.706632
928	C	0.602055	0.250392	0.66863
929	N	0.623419	0.260106	0.966277
930	H	0.598553	0.234098	0.736555
931	H	0.650323	0.234071	0.736606
932	N	0.651541	0.260086	0.966277
933	C	0.76816	0.416548	0.668789
934	C	0.780621	0.4075	0.706716
935	C	0.780544	0.376836	0.706726
936	C	0.768167	0.355354	0.668773
937	N	0.758437	0.367027	0.966453
938	H	0.784435	0.368216	0.736663
939	H	0.784426	0.419963	0.736677
940	N	0.758428	0.395149	0.966463
941	C	0.601979	0.355389	0.668759
942	C	0.611072	0.376878	0.70672
943	C	0.641726	0.407478	0.70672
944	C	0.663134	0.416561	0.668688
945	N	0.651469	0.395209	0.966335
946	H	0.650382	0.419978	0.73666
947	H	0.598639	0.368201	0.736694
948	N	0.623345	0.367075	0.966392
949	C	0.85904	0.264438	0.668861
950	C	0.880575	0.276859	0.70677
951	C	0.911169	0.276792	0.706709
952	C	0.920174	0.264396	0.668681
953	N	0.898786	0.254694	0.966369
954	H	0.92371	0.280668	0.736619
955	H	0.871941	0.280655	0.736755
956	N	0.870665	0.254707	0.96648
957	C	0.754113	0.098387	0.668559
958	C	0.741596	0.107292	0.706571
959	C	0.741631	0.137938	0.706696
960	C	0.753989	0.159394	0.668732
961	N	0.763746	0.147879	0.966284
962	H	0.737751	0.146537	0.73666
963	H	0.737818	0.094788	0.736487
964	N	0.763802	0.119777	0.966233
965	C	0.92025	0.159401	0.668553
966	C	0.91118	0.137968	0.706567
967	C	0.880505	0.107388	0.706561
968	C	0.859112	0.098308	0.668509
969	N	0.870807	0.119629	0.966118
970	H	0.871828	0.094903	0.736508
971	H	0.923603	0.146663	0.736545
972	N	0.898943	0.147752	0.966142
973	C	0.529231	0.766456	0.351344
974	C	0.54853	0.802191	0.349389
975	C	0.583171	0.820173	0.34033
976	C	0.59999	0.801877	0.335856
977	C	0.583206	0.766758	0.006961
978	C	0.548565	0.750057	0.016045
979	H	0.537436	0.816317	0.351641
980	O	0.634082	0.818934	0.334373
981	C	0.993003	0.748323	0.351334
982	C	0.97367	0.764724	0.01605
983	C	0.939034	0.748038	0.006947
984	C	0.922273	0.712932	0.335727
985	C	0.939072	0.694616	0.340225
986	C	0.973705	0.712588	0.349365
987	O	0.888175	0.695853	0.334255
988	H	0.984799	0.69846	0.351533
989	H	0.641523	0.82265	0.032765
990	H	0.880734	0.692166	0.032646
991	H	0.537498	0.724837	0.018213
992	H	0.984734	0.78994	0.018334
993	C	0.752012	0.766434	0.3513
994	C	0.716275	0.750023	0.349378
995	C	0.698323	0.766713	0.340303
996	C	0.716652	0.801834	0.335899
997	C	0.751765	0.82014	0.007015
998	C	0.768439	0.802166	0.016007
999	H	0.702134	0.724802	0.35154
1000	O	0.699599	0.818876	0.334519
1001	C	0.770123	0.748318	0.35133
1002	C	0.753701	0.712581	0.016066
1003	C	0.770392	0.694616	0.00709
1004	C	0.805519	0.712932	0.336084
1005	C	0.823831	0.748048	0.340492
1006	C	0.805859	0.764734	0.349419
1007	O	0.82255	0.695868	0.334726
1008	H	0.819995	0.789954	0.351648
1009	H	0.695922	0.822595	0.03293
1010	H	0.826269	0.692201	0.033141
1011	H	0.793655	0.816299	0.018292
1012	H	0.728476	0.698448	0.018138
1013	C	0.752055	0.989343	0.351361
1014	C	0.768461	0.970017	0.349429
1015	C	0.751774	0.935375	0.340374
1016	C	0.716659	0.918577	0.335919
1017	C	0.698352	0.93539	0.007008
1018	C	0.716319	0.970037	0.016049
1019	H	0.793678	0.981087	0.351692
1020	O	0.699596	0.884485	0.334451
1021	C	0.770186	0.525569	0.35132
1022	C	0.80592	0.544864	0.015961
1023	C	0.823893	0.579489	0.006795
1024	C	0.805575	0.596277	0.335547
1025	C	0.770469	0.579522	0.340144
1026	C	0.753786	0.544904	0.349395
1027	O	0.82264	0.630371	0.334025
1028	H	0.728571	0.533839	0.351672
1029	H	0.695914	0.877052	0.032844
1030	H	0.826365	0.637834	0.032406
1031	H	0.702189	0.981132	0.018171
1032	H	0.82005	0.533777	0.018237
1033	C	0.663096	0.750329	0.002015
1034	C	0.641651	0.737864	0.039984
1035	C	0.611079	0.737978	0.039966
1036	C	0.602055	0.750394	0.001965
1037	N	0.62342	0.760105	0.29961
1038	H	0.598552	0.734097	0.06989
1039	H	0.650322	0.734072	0.069939
1040	N	0.651541	0.760088	0.299609
1041	C	0.768161	0.916548	0.002124
1042	C	0.780623	0.907502	0.040049
1043	C	0.780544	0.876838	0.040059
1044	C	0.768168	0.855354	0.002103
1045	N	0.758437	0.867029	0.299787
1046	H	0.784437	0.868218	0.069997
1047	H	0.784424	0.919963	0.070008
1048	N	0.758428	0.895151	0.299798
1049	C	0.60198	0.855391	0.002093
1050	C	0.611073	0.87688	0.040053
1051	C	0.641728	0.90748	0.040052
1052	C	0.663136	0.916563	0.002022
1053	N	0.65147	0.895211	0.299666
1054	H	0.650382	0.91998	0.069992
1055	H	0.59864	0.868203	0.070028
1056	N	0.623346	0.867076	0.299726
1057	C	0.859039	0.764437	0.002195
1058	C	0.880574	0.776858	0.040103
1059	C	0.911167	0.776791	0.040042
1060	C	0.920176	0.764398	0.002015
1061	N	0.898785	0.754694	0.299702
1062	H	0.923709	0.780667	0.069952
1063	H	0.871941	0.780657	0.070088
1064	N	0.870665	0.754709	0.299813
1065	C	0.754112	0.598388	0.00189
1066	C	0.741597	0.607292	0.039904
1067	C	0.741633	0.637939	0.040029
1068	C	0.753989	0.659393	0.002066
1069	N	0.763747	0.64788	0.299617
1070	H	0.737753	0.646539	0.069994
1071	H	0.737817	0.594789	0.069822
1072	N	0.763803	0.619778	0.299566
1073	C	0.920249	0.659403	0.001887
1074	C	0.911182	0.637969	0.039901
1075	C	0.880507	0.607389	0.039893
1076	C	0.859112	0.598309	0.001843
1077	N	0.870807	0.619631	0.299451
1078	H	0.871827	0.594904	0.069839
1079	H	0.923604	0.646663	0.069879
1080	N	0.898944	0.647752	0.299475
1081	C	0.529231	0.766456	0.684675
1082	C	0.54853	0.802191	0.682723
1083	C	0.583171	0.820173	0.673664
1084	C	0.59999	0.801877	0.669189
1085	C	0.583206	0.766758	0.340296
1086	C	0.548565	0.750057	0.349378
1087	H	0.537436	0.816317	0.684972
1088	O	0.634082	0.818934	0.667707
1089	C	0.993003	0.748323	0.684668
1090	C	0.97367	0.764724	0.349382
1091	C	0.939034	0.748038	0.340282
1092	C	0.922273	0.712932	0.66906
1093	C	0.939072	0.694616	0.673559
1094	C	0.973705	0.712588	0.682699
1095	O	0.888175	0.695853	0.667589
1096	H	0.984799	0.69846	0.684867
1097	H	0.641523	0.82265	0.366099
1098	H	0.880734	0.692166	0.365981
1099	H	0.537498	0.724837	0.351547
1100	H	0.984734	0.78994	0.351668
1101	C	0.752012	0.766434	0.684634
1102	C	0.716275	0.750023	0.682713
1103	C	0.698323	0.766713	0.673637
1104	C	0.716652	0.801834	0.669233
1105	C	0.751765	0.82014	0.34035
1106	C	0.768439	0.802166	0.349341
1107	H	0.702134	0.724802	0.684874
1108	O	0.699599	0.818876	0.667852
1109	C	0.770123	0.748318	0.684664
1110	C	0.753701	0.712581	0.349399
1111	C	0.770392	0.694616	0.340424
1112	C	0.805519	0.712932	0.669419
1113	C	0.823831	0.748048	0.673826
1114	C	0.805859	0.764734	0.682753
1115	O	0.82255	0.695868	0.668059
1116	H	0.819995	0.789954	0.684982
1117	H	0.695922	0.822595	0.366265
1118	H	0.826269	0.692201	0.366475
1119	H	0.793655	0.816299	0.351624
1120	H	0.728476	0.698448	0.351472
1121	C	0.752055	0.989343	0.684692
1122	C	0.768461	0.970017	0.68276
1123	C	0.751774	0.935375	0.673708
1124	C	0.716659	0.918577	0.669253
1125	C	0.698352	0.93539	0.340343
1126	C	0.716319	0.970037	0.349382
1127	H	0.793678	0.981087	0.685026
1128	O	0.699596	0.884485	0.667785
1129	C	0.770186	0.525569	0.684654
1130	C	0.80592	0.544864	0.349294
1131	C	0.823893	0.579489	0.34013
1132	C	0.805575	0.596277	0.668881
1133	C	0.770469	0.579522	0.673478
1134	C	0.753786	0.544904	0.68273
1135	O	0.82264	0.630371	0.667359
1136	H	0.728571	0.533839	0.685006
1137	H	0.695914	0.877052	0.366177
1138	H	0.826365	0.637834	0.36574
1139	H	0.702189	0.981132	0.351506
1140	H	0.82005	0.533777	0.35157
1141	C	0.663096	0.750329	0.335348
1142	C	0.641651	0.737864	0.373318
1143	C	0.611079	0.737978	0.373301
1144	C	0.602055	0.750394	0.335298
1145	N	0.62342	0.760105	0.632943
1146	H	0.598552	0.734097	0.403224
1147	H	0.650322	0.734072	0.403272
1148	N	0.651541	0.760088	0.632943
1149	C	0.768161	0.916548	0.335456
1150	C	0.780623	0.907502	0.373382
1151	C	0.780544	0.876838	0.373392
1152	C	0.768168	0.855354	0.335437
1153	N	0.758437	0.867029	0.633122
1154	H	0.784437	0.868218	0.403332
1155	H	0.784424	0.919963	0.403343
1156	N	0.758428	0.895151	0.633132
1157	C	0.60198	0.855391	0.335427
1158	C	0.611073	0.87688	0.373385
1159	C	0.641728	0.90748	0.373385
1160	C	0.663136	0.916563	0.335354
1161	N	0.65147	0.895211	0.633001
1162	H	0.650382	0.91998	0.403326
1163	H	0.59864	0.868203	0.403363
1164	N	0.623346	0.867076	0.633061
1165	C	0.859039	0.764437	0.335526
1166	C	0.880574	0.776858	0.373436
1167	C	0.911167	0.776791	0.373375
1168	C	0.920176	0.764398	0.335347
1169	N	0.898785	0.754694	0.633038
1170	H	0.923709	0.780667	0.403285
1171	H	0.871941	0.780657	0.40342
1172	N	0.870665	0.754709	0.633146
1173	C	0.754112	0.598388	0.335225
1174	C	0.741597	0.607292	0.373237
1175	C	0.741633	0.637939	0.373362
1176	C	0.753989	0.659393	0.335399
1177	N	0.763747	0.64788	0.63295
1178	H	0.737753	0.646539	0.403326
1179	H	0.737817	0.594789	0.403156
1180	N	0.763803	0.619778	0.632899
1181	C	0.920249	0.659403	0.33522
1182	C	0.911182	0.637969	0.373233
1183	C	0.880507	0.607389	0.373226
1184	C	0.859112	0.598309	0.335175
1185	N	0.870807	0.619631	0.632784
1186	H	0.871827	0.594904	0.403173
1187	H	0.923604	0.646663	0.403214
1188	N	0.898944	0.647752	0.632808
1189	C	0.529231	0.766456	0.018009
1190	C	0.54853	0.802191	0.016054
1191	C	0.583171	0.820173	0.006998
1192	C	0.59999	0.801877	0.002523
1193	C	0.583206	0.766758	0.67363
1194	C	0.548565	0.750057	0.682713
1195	H	0.537436	0.816317	0.018306
1196	O	0.634082	0.818934	0.001041
1197	C	0.993003	0.748323	0.018001
1198	C	0.97367	0.764724	0.682716
1199	C	0.939034	0.748038	0.673617
1200	C	0.922273	0.712932	0.002394
1201	C	0.939072	0.694616	0.00689
1202	C	0.973705	0.712588	0.016033
1203	O	0.888175	0.695853	0.000923
1204	H	0.984799	0.69846	0.018201
1205	H	0.641523	0.82265	0.69943
1206	H	0.880734	0.692166	0.699312
1207	H	0.537498	0.724837	0.684881
1208	H	0.984734	0.78994	0.684999
1209	C	0.752012	0.766434	0.017968
1210	C	0.716275	0.750023	0.016045
1211	C	0.698323	0.766713	0.006971
1212	C	0.716652	0.801834	0.002567
1213	C	0.751765	0.82014	0.673684
1214	C	0.768439	0.802166	0.682675
1215	H	0.702134	0.724802	0.018206
1216	O	0.699599	0.818876	0.001187
1217	C	0.770123	0.748318	0.017997
1218	C	0.753701	0.712581	0.682733
1219	C	0.770392	0.694616	0.673759
1220	C	0.805519	0.712932	0.00275
1221	C	0.823831	0.748048	0.007161
1222	C	0.805859	0.764734	0.016087
1223	O	0.82255	0.695868	0.001393
1224	H	0.819995	0.789954	0.018316
1225	H	0.695922	0.822595	0.699596
1226	H	0.826269	0.692201	0.699809
1227	H	0.793655	0.816299	0.684959
1228	H	0.728476	0.698448	0.684807
1229	C	0.752055	0.989343	0.018026
1230	C	0.768461	0.970017	0.016094
1231	C	0.751774	0.935375	0.007042
1232	C	0.716659	0.918577	0.002587
1233	C	0.698352	0.93539	0.673677
1234	C	0.716319	0.970037	0.682716
1235	H	0.793678	0.981087	0.018358
1236	O	0.699596	0.884485	0.001119
1237	C	0.770186	0.525569	0.017986
1238	C	0.80592	0.544864	0.682628
1239	C	0.823893	0.579489	0.673461
1240	C	0.805575	0.596277	0.002215
1241	C	0.770469	0.579522	0.006809
1242	C	0.753786	0.544904	0.016062
1243	O	0.82264	0.630371	0.000693
1244	H	0.728571	0.533839	0.018338
1245	H	0.695914	0.877052	0.699511
1246	H	0.826365	0.637834	0.699075
1247	H	0.702189	0.981132	0.684837
1248	H	0.82005	0.533777	0.684905
1249	C	0.663096	0.750329	0.668681
1250	C	0.641651	0.737864	0.706652
1251	C	0.611079	0.737978	0.706632
1252	C	0.602055	0.750394	0.66863
1253	N	0.62342	0.760105	0.966277
1254	H	0.598552	0.734097	0.736555
1255	H	0.650322	0.734072	0.736606
1256	N	0.651541	0.760088	0.966277
1257	C	0.768161	0.916548	0.668789
1258	C	0.780623	0.907502	0.706716
1259	C	0.780544	0.876838	0.706726
1260	C	0.768168	0.855354	0.668773
1261	N	0.758437	0.867029	0.966453
1262	H	0.784437	0.868218	0.736663
1263	H	0.784424	0.919963	0.736677
1264	N	0.758428	0.895151	0.966463
1265	C	0.60198	0.855391	0.668759
1266	C	0.611073	0.87688	0.70672
1267	C	0.641728	0.90748	0.70672
1268	C	0.663136	0.916563	0.668688
1269	N	0.65147	0.895211	0.966335
1270	H	0.650382	0.91998	0.73666
1271	H	0.59864	0.868203	0.736694
1272	N	0.623346	0.867076	0.966392
1273	C	0.859039	0.764437	0.668861
1274	C	0.880574	0.776858	0.70677
1275	C	0.911167	0.776791	0.706709
1276	C	0.920176	0.764398	0.668681
1277	N	0.898785	0.754694	0.966369
1278	H	0.923709	0.780667	0.736619
1279	H	0.871941	0.780657	0.736755
1280	N	0.870665	0.754709	0.96648
1281	C	0.754112	0.598388	0.668559
1282	C	0.741597	0.607292	0.706571
1283	C	0.741633	0.637939	0.706696
1284	C	0.753989	0.659393	0.668732
1285	N	0.763747	0.64788	0.966284
1286	H	0.737753	0.646539	0.73666
1287	H	0.737817	0.594789	0.736487
1288	N	0.763803	0.619778	0.966233
1289	C	0.920249	0.659403	0.668553
1290	C	0.911182	0.637969	0.706567
1291	C	0.880507	0.607389	0.706561
1292	C	0.859112	0.598309	0.668509
1293	N	0.870807	0.619631	0.966118
1294	H	0.871827	0.594904	0.736508
1295	H	0.923604	0.646663	0.736545
1296	N	0.898944	0.647752	0.966142
