data_C432H432N72O144_2018-02-15_10:34:03
#******************************************
#
# CIF file created by Zeo++
# Zeo++ is an open source package to
# analyze microporous materials
#
#*******************************************

_cell_length_a		43.6671   
_cell_length_b		43.6672   
_cell_length_c		30.0216   
_cell_angle_alpha		90   
_cell_angle_beta		90   
_cell_angle_gamma		120   

_symmetry_space_group_name_H-M		'P1'
_symmetry_Int_Tables_number		1
_symmetry_cell_setting		Monoclinic

loop_
_symmetry_equiv_pos_as_xyz
'+x,+y,+z'

loop_
_atom_site_label
_atom_site_type_symbol
_atom_site_fract_x
_atom_site_fract_y
_atom_site_fract_z
1	C	0.182666	0.312115	0.045577
2	C	0.145415	0.295895	0.045619
3	C	0.128762	0.316454	0.045519
4	C	0.149796	0.353705	0.045597
5	C	0.18701	0.370361	0.045542
6	C	0.203226	0.349326	0.045681
7	H	0.13789	0.368791	0.044912
8	H	0.230218	0.36123	0.044991
9	H	0.130331	0.268901	0.044952
10	N	0.200131	0.292222	0.044117
11	H	0.186665	0.269544	0.062753
12	N	0.206915	0.407723	0.044066
13	H	0.229703	0.416928	0.062466
14	N	0.0914	0.298996	0.044073
15	H	0.082202	0.312554	0.062538
16	C	0.316264	0.187164	0.953721
17	C	0.353515	0.203391	0.953685
18	C	0.370174	0.182838	0.953795
19	C	0.349147	0.145586	0.953685
20	C	0.311932	0.128924	0.953718
21	C	0.295709	0.149952	0.953611
22	H	0.361056	0.130504	0.954364
23	H	0.268717	0.138043	0.954251
24	H	0.368593	0.230383	0.954377
25	N	0.298792	0.207052	0.955174
26	H	0.312254	0.229726	0.936534
27	N	0.292032	0.091561	0.955164
28	H	0.269258	0.082362	0.936737
29	N	0.407536	0.200302	0.95526
30	H	0.416745	0.186746	0.936807
31	C	0.270751	0.233211	0.000286
32	C	0.236359	0.215606	0.31482
33	C	0.215152	0.231641	0.314642
34	C	0.22817	0.266064	0.33233
35	C	0.262563	0.28367	0.0178
36	C	0.283771	0.267637	0.017972
37	O	0.182495	0.213609	0.295637
38	H	0.166053	0.199848	0.3197
39	O	0.222635	0.182256	0.298064
40	O	0.276291	0.317023	0.034549
41	O	0.316428	0.285669	0.036977
42	H	0.273696	0.314518	0.067105
43	H	0.225229	0.184762	0.265508
44	H	0.33287	0.299427	0.012913
45	C	0.206579	0.283879	0.331616
46	H	0.181206	0.267875	0.314823
47	H	0.221225	0.308318	0.312431
48	C	0.292343	0.215398	0.001005
49	H	0.277695	0.190958	0.020191
50	H	0.317714	0.231402	0.017799
51	C	0.265983	0.037356	0.00027
52	C	0.283415	0.020483	0.314544
53	C	0.267286	0.483234	0.314344
54	C	0.232928	0.461905	0.33226
55	C	0.215494	0.478779	0.017981
56	C	0.231623	0.016029	0.018176
57	O	0.285157	0.468524	0.295109
58	H	0.298989	0.465792	0.319034
59	O	0.316702	0.040032	0.297572
60	O	0.182214	0.459229	0.034969
61	O	0.213757	0.030735	0.037433
62	H	0.18487	0.459123	0.067498
63	H	0.314056	0.040146	0.265043
64	H	0.199924	0.033475	0.013517
65	C	0.215013	0.422494	0.331545
66	H	0.230874	0.413054	0.314494
67	H	0.190482	0.41276	0.312612
68	C	0.283905	0.076767	0.001007
69	H	0.308426	0.08649	0.019959
70	H	0.26804	0.086205	0.01805
71	C	0.461737	0.228451	0.000369
72	C	0.478597	0.262766	0.314675
73	C	0.015845	0.283889	0.314454
74	C	0.037185	0.270858	0.332322
75	C	0.020325	0.236545	0.018022
76	C	0.483077	0.215419	0.018239
77	O	0.030539	0.316475	0.295238
78	H	0.033279	0.333031	0.319179
79	O	0.459033	0.276498	0.297733
80	O	0.039885	0.222807	0.034955
81	O	0.468382	0.182832	0.037452
82	H	0.040005	0.225548	0.067488
83	H	0.458921	0.273759	0.265199
84	H	0.465645	0.16628	0.01351
85	C	0.076596	0.292359	0.331571
86	H	0.086023	0.317668	0.314562
87	H	0.086324	0.277577	0.312581
88	C	0.422326	0.206945	0.001104
89	H	0.412588	0.221724	0.020081
90	H	0.412898	0.181636	0.018117
91	C	0.182666	0.312115	0.378911
92	C	0.145415	0.295895	0.378951
93	C	0.128762	0.316454	0.378851
94	C	0.149796	0.353705	0.378931
95	C	0.18701	0.370361	0.378874
96	C	0.203226	0.349326	0.379014
97	H	0.13789	0.368791	0.378245
98	H	0.230218	0.36123	0.378325
99	H	0.130331	0.268901	0.378285
100	N	0.200131	0.292222	0.377449
101	H	0.186665	0.269544	0.396085
102	N	0.206915	0.407723	0.377399
103	H	0.229703	0.416928	0.395799
104	N	0.0914	0.298996	0.377405
105	H	0.082202	0.312554	0.395872
106	C	0.316264	0.187164	0.287055
107	C	0.353515	0.203391	0.287019
108	C	0.370174	0.182838	0.287128
109	C	0.349147	0.145586	0.287019
110	C	0.311932	0.128924	0.287053
111	C	0.295709	0.149952	0.286945
112	H	0.361056	0.130504	0.287697
113	H	0.268717	0.138043	0.287586
114	H	0.368593	0.230383	0.287713
115	N	0.298792	0.207052	0.288507
116	H	0.312254	0.229726	0.269866
117	N	0.292032	0.091561	0.288497
118	H	0.269258	0.082362	0.270072
119	N	0.407536	0.200302	0.288593
120	H	0.416745	0.186746	0.270143
121	C	0.270751	0.233211	0.33362
122	C	0.236359	0.215606	0.648154
123	C	0.215152	0.231641	0.647974
124	C	0.22817	0.266064	0.665662
125	C	0.262563	0.28367	0.351131
126	C	0.283771	0.267637	0.351304
127	O	0.182495	0.213609	0.628968
128	H	0.166053	0.199848	0.653034
129	O	0.222635	0.182256	0.631396
130	O	0.276291	0.317023	0.367882
131	O	0.316428	0.285669	0.370311
132	H	0.273696	0.314518	0.400439
133	H	0.225229	0.184762	0.59884
134	H	0.33287	0.299427	0.346244
135	C	0.206579	0.283879	0.664949
136	H	0.181206	0.267875	0.648154
137	H	0.221225	0.308318	0.645766
138	C	0.292343	0.215398	0.334336
139	H	0.277695	0.190958	0.353523
140	H	0.317714	0.231402	0.351131
141	C	0.265983	0.037356	0.333604
142	C	0.283415	0.020483	0.647878
143	C	0.267286	0.483234	0.647678
144	C	0.232928	0.461905	0.665592
145	C	0.215494	0.478779	0.351314
146	C	0.231623	0.016029	0.351511
147	O	0.285157	0.468524	0.628442
148	H	0.298989	0.465792	0.652368
149	O	0.316702	0.040032	0.630907
150	O	0.182214	0.459229	0.368302
151	O	0.213757	0.030735	0.370767
152	H	0.18487	0.459123	0.400832
153	H	0.314056	0.040146	0.598377
154	H	0.199924	0.033475	0.346851
155	C	0.215013	0.422494	0.664879
156	H	0.230874	0.413054	0.647828
157	H	0.190482	0.41276	0.645946
158	C	0.283905	0.076767	0.33434
159	H	0.308426	0.08649	0.353293
160	H	0.26804	0.086205	0.351384
161	C	0.461737	0.228451	0.3337
162	C	0.478597	0.262766	0.648008
163	C	0.015845	0.283889	0.647788
164	C	0.037185	0.270858	0.665655
165	C	0.020325	0.236545	0.351354
166	C	0.483077	0.215419	0.351571
167	O	0.030539	0.316475	0.628572
168	H	0.033279	0.333031	0.652511
169	O	0.459033	0.276498	0.631066
170	O	0.039885	0.222807	0.368289
171	O	0.468382	0.182832	0.370787
172	H	0.040005	0.225548	0.400822
173	H	0.458921	0.273759	0.598533
174	H	0.465645	0.16628	0.346844
175	C	0.076596	0.292359	0.664905
176	H	0.086023	0.317668	0.647894
177	H	0.086324	0.277577	0.645912
178	C	0.422326	0.206945	0.334436
179	H	0.412588	0.221724	0.353413
180	H	0.412898	0.181636	0.351451
181	C	0.182666	0.312115	0.712241
182	C	0.145415	0.295895	0.712285
183	C	0.128762	0.316454	0.712185
184	C	0.149796	0.353705	0.712261
185	C	0.18701	0.370361	0.712208
186	C	0.203226	0.349326	0.712345
187	H	0.13789	0.368791	0.711579
188	H	0.230218	0.36123	0.711655
189	H	0.130331	0.268901	0.711619
190	N	0.200131	0.292222	0.710783
191	H	0.186665	0.269544	0.729419
192	N	0.206915	0.407723	0.710733
193	H	0.229703	0.416928	0.729133
194	N	0.0914	0.298996	0.710739
195	H	0.082202	0.312554	0.729203
196	C	0.316264	0.187164	0.620387
197	C	0.353515	0.203391	0.620351
198	C	0.370174	0.182838	0.620461
199	C	0.349147	0.145586	0.620351
200	C	0.311932	0.128924	0.620384
201	C	0.295709	0.149952	0.620278
202	H	0.361056	0.130504	0.62103
203	H	0.268717	0.138043	0.62092
204	H	0.368593	0.230383	0.621047
205	N	0.298792	0.207052	0.62184
206	H	0.312254	0.229726	0.6032
207	N	0.292032	0.091561	0.62183
208	H	0.269258	0.082362	0.603406
209	N	0.407536	0.200302	0.621926
210	H	0.416745	0.186746	0.603476
211	C	0.270751	0.233211	0.666951
212	C	0.236359	0.215606	0.981485
213	C	0.215152	0.231641	0.981308
214	C	0.22817	0.266064	0.998995
215	C	0.262563	0.28367	0.684465
216	C	0.283771	0.267637	0.684638
217	O	0.182495	0.213609	0.962302
218	H	0.166053	0.199848	0.986364
219	O	0.222635	0.182256	0.96473
220	O	0.276291	0.317023	0.701213
221	O	0.316428	0.285669	0.703644
222	H	0.273696	0.314518	0.733769
223	H	0.225229	0.184762	0.932173
224	H	0.33287	0.299427	0.679578
225	C	0.206579	0.283879	0.998283
226	H	0.181206	0.267875	0.981488
227	H	0.221225	0.308318	0.979096
228	C	0.292343	0.215398	0.66767
229	H	0.277695	0.190958	0.686856
230	H	0.317714	0.231402	0.684465
231	C	0.265983	0.037356	0.666937
232	C	0.283415	0.020483	0.981208
233	C	0.267286	0.483234	0.981012
234	C	0.232928	0.461905	0.998925
235	C	0.215494	0.478779	0.684648
236	C	0.231623	0.016029	0.684841
237	O	0.285157	0.468524	0.961775
238	H	0.298989	0.465792	0.985698
239	O	0.316702	0.040032	0.964237
240	O	0.182214	0.459229	0.701636
241	O	0.213757	0.030735	0.704101
242	H	0.18487	0.459123	0.734162
243	H	0.314056	0.040146	0.931707
244	H	0.199924	0.033475	0.680185
245	C	0.215013	0.422494	0.998213
246	H	0.230874	0.413054	0.981162
247	H	0.190482	0.41276	0.97928
248	C	0.283905	0.076767	0.667673
249	H	0.308426	0.08649	0.686623
250	H	0.26804	0.086205	0.684718
251	C	0.461737	0.228451	0.667034
252	C	0.478597	0.262766	0.981341
253	C	0.015845	0.283889	0.981118
254	C	0.037185	0.270858	0.998989
255	C	0.020325	0.236545	0.684688
256	C	0.483077	0.215419	0.684904
257	O	0.030539	0.316475	0.961902
258	H	0.033279	0.333031	0.985845
259	O	0.459033	0.276498	0.964397
260	O	0.039885	0.222807	0.701619
261	O	0.468382	0.182832	0.704117
262	H	0.040005	0.225548	0.734152
263	H	0.458921	0.273759	0.931864
264	H	0.465645	0.16628	0.680175
265	C	0.076596	0.292359	0.998236
266	H	0.086023	0.317668	0.981228
267	H	0.086324	0.277577	0.979246
268	C	0.422326	0.206945	0.66777
269	H	0.412588	0.221724	0.686746
270	H	0.412898	0.181636	0.684781
271	C	0.182666	0.812114	0.045576
272	C	0.145414	0.795894	0.045618
273	C	0.128763	0.816453	0.045518
274	C	0.149795	0.853704	0.045597
275	C	0.18701	0.870361	0.045542
276	C	0.203228	0.849328	0.045681
277	H	0.137889	0.86879	0.044912
278	H	0.230218	0.86123	0.044992
279	H	0.130332	0.768903	0.04495
280	N	0.200132	0.792221	0.044117
281	H	0.186668	0.769546	0.062755
282	N	0.206914	0.907722	0.044067
283	H	0.229703	0.916927	0.062467
284	N	0.091402	0.798996	0.044072
285	H	0.082204	0.812556	0.062537
286	C	0.316263	0.687162	0.953721
287	C	0.353515	0.70339	0.953685
288	C	0.370174	0.682836	0.953795
289	C	0.349147	0.645585	0.953685
290	C	0.311933	0.628923	0.953718
291	C	0.295709	0.649951	0.953611
292	H	0.361057	0.630502	0.954364
293	H	0.268716	0.638041	0.954251
294	H	0.368594	0.730383	0.954381
295	N	0.298792	0.70705	0.955174
296	H	0.312252	0.729722	0.93653
297	N	0.292033	0.591559	0.955164
298	H	0.269258	0.582362	0.936737
299	N	0.407536	0.700302	0.95526
300	H	0.416744	0.686744	0.93681
301	C	0.270753	0.733213	0.000286
302	C	0.236358	0.715604	0.314823
303	C	0.215152	0.731639	0.314646
304	C	0.22817	0.766063	0.33233
305	C	0.262563	0.783669	0.017796
306	C	0.283773	0.767639	0.017969
307	O	0.182493	0.713605	0.295644
308	H	0.166052	0.699844	0.319709
309	O	0.222635	0.682254	0.298071
310	O	0.27629	0.817022	0.034542
311	O	0.31643	0.785671	0.03697
312	H	0.2737	0.814523	0.067098
313	H	0.225227	0.684758	0.265515
314	H	0.332871	0.799429	0.012904
315	C	0.206577	0.783875	0.331616
316	H	0.181203	0.767869	0.314825
317	H	0.221222	0.808314	0.31243
318	C	0.292344	0.715398	0.001005
319	H	0.277699	0.690962	0.020192
320	H	0.317718	0.731404	0.017797
321	C	0.265984	0.537356	0.000269
322	C	0.283416	0.520482	0.314543
323	C	0.267286	0.983234	0.314345
324	C	0.232928	0.961907	0.332261
325	C	0.215495	0.978778	0.017982
326	C	0.231623	0.516027	0.018175
327	O	0.285158	0.968526	0.295109
328	H	0.29899	0.965794	0.319035
329	O	0.316703	0.540032	0.297571
330	O	0.182215	0.959228	0.03497
331	O	0.213757	0.530734	0.037432
332	H	0.184869	0.959123	0.067499
333	H	0.314057	0.540145	0.265042
334	H	0.199924	0.533474	0.013516
335	C	0.215013	0.922496	0.331546
336	H	0.230874	0.913053	0.314495
337	H	0.190483	0.91276	0.312613
338	C	0.283906	0.576767	0.001006
339	H	0.308427	0.58649	0.019958
340	H	0.26804	0.586204	0.01805
341	C	0.461736	0.72845	0.000369
342	C	0.478597	0.762766	0.314673
343	C	0.015845	0.783889	0.314452
344	C	0.037186	0.770857	0.332322
345	C	0.020325	0.736545	0.018024
346	C	0.483076	0.715419	0.018241
347	O	0.03054	0.816475	0.295233
348	H	0.03328	0.833031	0.319174
349	O	0.459035	0.776498	0.297729
350	O	0.039886	0.722807	0.034958
351	O	0.468381	0.682833	0.037457
352	H	0.040006	0.72555	0.067491
353	H	0.458921	0.773756	0.265196
354	H	0.465645	0.66628	0.013516
355	C	0.076596	0.792358	0.331571
356	H	0.086024	0.817667	0.314562
357	H	0.086324	0.777574	0.31258
358	C	0.422325	0.706944	0.001104
359	H	0.412588	0.721726	0.020081
360	H	0.412898	0.681638	0.018118
361	C	0.182666	0.812114	0.378908
362	C	0.145414	0.795894	0.378951
363	C	0.128763	0.816453	0.378851
364	C	0.149795	0.853704	0.378931
365	C	0.18701	0.870361	0.378874
366	C	0.203228	0.849328	0.379014
367	H	0.137889	0.86879	0.378245
368	H	0.230218	0.86123	0.378325
369	H	0.130332	0.768903	0.378285
370	N	0.200132	0.792221	0.377449
371	H	0.186668	0.769546	0.396089
372	N	0.206914	0.907722	0.377399
373	H	0.229703	0.916927	0.395799
374	N	0.091402	0.798996	0.377405
375	H	0.082204	0.812556	0.395869
376	C	0.316263	0.687162	0.287055
377	C	0.353515	0.70339	0.28702
378	C	0.370174	0.682836	0.287128
379	C	0.349147	0.645585	0.287019
380	C	0.311933	0.628923	0.287052
381	C	0.295709	0.649951	0.286944
382	H	0.361057	0.630502	0.287697
383	H	0.268716	0.638041	0.287586
384	H	0.368594	0.730383	0.287714
385	N	0.298792	0.70705	0.288507
386	H	0.312252	0.729722	0.269864
387	N	0.292033	0.591559	0.288497
388	H	0.269258	0.582362	0.270072
389	N	0.407536	0.700302	0.288594
390	H	0.416744	0.686744	0.270144
391	C	0.270753	0.733213	0.33362
392	C	0.236358	0.715604	0.648158
393	C	0.215152	0.731639	0.647978
394	C	0.22817	0.766063	0.665665
395	C	0.262563	0.783669	0.351128
396	C	0.283773	0.767639	0.351301
397	O	0.182493	0.713605	0.628978
398	H	0.166052	0.699844	0.653041
399	O	0.222635	0.682254	0.631403
400	O	0.27629	0.817022	0.367876
401	O	0.31643	0.785671	0.370304
402	H	0.2737	0.814523	0.400432
403	H	0.225227	0.684758	0.598846
404	H	0.332871	0.799429	0.346238
405	C	0.206577	0.783875	0.664949
406	H	0.181203	0.767869	0.648158
407	H	0.221222	0.808314	0.645763
408	C	0.292344	0.715398	0.334336
409	H	0.277699	0.690962	0.353526
410	H	0.317718	0.731404	0.351131
411	C	0.265984	0.537356	0.333604
412	C	0.283416	0.520482	0.647874
413	C	0.267286	0.983234	0.647678
414	C	0.232928	0.961907	0.665595
415	C	0.215495	0.978778	0.351314
416	C	0.231623	0.516027	0.351507
417	O	0.285158	0.968526	0.628442
418	H	0.29899	0.965794	0.652368
419	O	0.316703	0.540032	0.630903
420	O	0.182215	0.959228	0.368302
421	O	0.213757	0.530734	0.370767
422	H	0.184869	0.959123	0.400832
423	H	0.314057	0.540145	0.598373
424	H	0.199924	0.533474	0.346851
425	C	0.215013	0.922496	0.664879
426	H	0.230874	0.913053	0.647828
427	H	0.190483	0.91276	0.645946
428	C	0.283906	0.576767	0.33434
429	H	0.308427	0.58649	0.353289
430	H	0.26804	0.586204	0.351384
431	C	0.461736	0.72845	0.3337
432	C	0.478597	0.762766	0.648004
433	C	0.015845	0.783889	0.647784
434	C	0.037186	0.770857	0.665655
435	C	0.020325	0.736545	0.351357
436	C	0.483076	0.715419	0.351574
437	O	0.03054	0.816475	0.628565
438	H	0.03328	0.833031	0.652508
439	O	0.459035	0.776498	0.631063
440	O	0.039886	0.722807	0.368292
441	O	0.468381	0.682833	0.37079
442	H	0.040006	0.72555	0.400825
443	H	0.458921	0.773756	0.59853
444	H	0.465645	0.66628	0.346847
445	C	0.076596	0.792358	0.664902
446	H	0.086024	0.817667	0.647894
447	H	0.086324	0.777574	0.645912
448	C	0.422325	0.706944	0.334436
449	H	0.412588	0.721726	0.353413
450	H	0.412898	0.681638	0.351451
451	C	0.182666	0.812114	0.712241
452	C	0.145414	0.795894	0.712285
453	C	0.128763	0.816453	0.712185
454	C	0.149795	0.853704	0.712261
455	C	0.18701	0.870361	0.712208
456	C	0.203228	0.849328	0.712348
457	H	0.137889	0.86879	0.711579
458	H	0.230218	0.86123	0.711659
459	H	0.130332	0.768903	0.711615
460	N	0.200132	0.792221	0.710783
461	H	0.186668	0.769546	0.729422
462	N	0.206914	0.907722	0.710733
463	H	0.229703	0.916927	0.729133
464	N	0.091402	0.798996	0.710739
465	H	0.082204	0.812556	0.729203
466	C	0.316263	0.687162	0.620387
467	C	0.353515	0.70339	0.620354
468	C	0.370174	0.682836	0.620461
469	C	0.349147	0.645585	0.620351
470	C	0.311933	0.628923	0.620384
471	C	0.295709	0.649951	0.620278
472	H	0.361057	0.630502	0.62103
473	H	0.268716	0.638041	0.620917
474	H	0.368594	0.730383	0.621047
475	N	0.298792	0.70705	0.62184
476	H	0.312252	0.729722	0.603197
477	N	0.292033	0.591559	0.62183
478	H	0.269258	0.582362	0.603403
479	N	0.407536	0.700302	0.621926
480	H	0.416744	0.686744	0.603476
481	C	0.270753	0.733213	0.666951
482	C	0.236358	0.715604	0.981488
483	C	0.215152	0.731639	0.981311
484	C	0.22817	0.766063	0.998995
485	C	0.262563	0.783669	0.684461
486	C	0.283773	0.767639	0.684635
487	O	0.182493	0.713605	0.962308
488	H	0.166052	0.699844	0.986374
489	O	0.222635	0.682254	0.964737
490	O	0.27629	0.817022	0.701206
491	O	0.31643	0.785671	0.703634
492	H	0.2737	0.814523	0.733763
493	H	0.225227	0.684758	0.93218
494	H	0.332871	0.799429	0.679568
495	C	0.206577	0.783875	0.998283
496	H	0.181203	0.767869	0.981491
497	H	0.221222	0.808314	0.979096
498	C	0.292344	0.715398	0.66767
499	H	0.277699	0.690962	0.68686
500	H	0.317718	0.731404	0.684461
501	C	0.265984	0.537356	0.666934
502	C	0.283416	0.520482	0.981208
503	C	0.267286	0.983234	0.981012
504	C	0.232928	0.961907	0.998925
505	C	0.215495	0.978778	0.684648
506	C	0.231623	0.516027	0.684841
507	O	0.285158	0.968526	0.961775
508	H	0.29899	0.965794	0.985702
509	O	0.316703	0.540032	0.964237
510	O	0.182215	0.959228	0.701636
511	O	0.213757	0.530734	0.704097
512	H	0.184869	0.959123	0.734166
513	H	0.314057	0.540145	0.931707
514	H	0.199924	0.533474	0.680181
515	C	0.215013	0.922496	0.998213
516	H	0.230874	0.913053	0.981162
517	H	0.190483	0.91276	0.97928
518	C	0.283906	0.576767	0.66767
519	H	0.308427	0.58649	0.686623
520	H	0.26804	0.586204	0.684715
521	C	0.461736	0.72845	0.667034
522	C	0.478597	0.762766	0.981338
523	C	0.015845	0.783889	0.981118
524	C	0.037186	0.770857	0.998989
525	C	0.020325	0.736545	0.684691
526	C	0.483076	0.715419	0.684908
527	O	0.03054	0.816475	0.961899
528	H	0.03328	0.833031	0.985838
529	O	0.459035	0.776498	0.964394
530	O	0.039886	0.722807	0.701622
531	O	0.468381	0.682833	0.704124
532	H	0.040006	0.72555	0.734159
533	H	0.458921	0.773756	0.93186
534	H	0.465645	0.66628	0.680181
535	C	0.076596	0.792358	0.998236
536	H	0.086024	0.817667	0.981228
537	H	0.086324	0.777574	0.979246
538	C	0.422325	0.706944	0.66777
539	H	0.412588	0.721726	0.686746
540	H	0.412898	0.681638	0.684785
541	C	0.682667	0.312115	0.045577
542	C	0.645416	0.295895	0.045619
543	C	0.628762	0.316454	0.045519
544	C	0.649795	0.353705	0.045597
545	C	0.68701	0.370361	0.045542
546	C	0.703226	0.349326	0.045681
547	H	0.63789	0.368791	0.044912
548	H	0.730217	0.36123	0.044991
549	H	0.63033	0.268901	0.044952
550	N	0.70013	0.292222	0.044117
551	H	0.686666	0.269544	0.062753
552	N	0.706916	0.407723	0.044066
553	H	0.729704	0.416928	0.062466
554	N	0.591401	0.298996	0.044073
555	H	0.582202	0.312554	0.062538
556	C	0.816264	0.187164	0.953721
557	C	0.853516	0.203391	0.953685
558	C	0.870175	0.182838	0.953795
559	C	0.849146	0.145586	0.953685
560	C	0.811933	0.128924	0.953718
561	C	0.795709	0.149952	0.953611
562	H	0.861057	0.130504	0.954364
563	H	0.768718	0.138043	0.954251
564	H	0.868594	0.230383	0.954377
565	N	0.798793	0.207052	0.955174
566	H	0.812253	0.229726	0.936534
567	N	0.792033	0.091561	0.955164
568	H	0.769258	0.082362	0.936737
569	N	0.907537	0.200302	0.95526
570	H	0.916744	0.186746	0.936807
571	C	0.77075	0.233211	0.000286
572	C	0.736359	0.215606	0.31482
573	C	0.715153	0.231641	0.314642
574	C	0.728169	0.266064	0.33233
575	C	0.762563	0.28367	0.0178
576	C	0.783771	0.267637	0.017972
577	O	0.682494	0.213609	0.295637
578	H	0.666053	0.199848	0.3197
579	O	0.722636	0.182256	0.298064
580	O	0.77629	0.317023	0.034549
581	O	0.816429	0.285669	0.036977
582	H	0.773696	0.314518	0.067105
583	H	0.725229	0.184762	0.265508
584	H	0.832869	0.299427	0.012913
585	C	0.706578	0.283879	0.331616
586	H	0.681206	0.267875	0.314823
587	H	0.721224	0.308318	0.312431
588	C	0.792343	0.215398	0.001005
589	H	0.777695	0.190958	0.020191
590	H	0.817715	0.231402	0.017799
591	C	0.765984	0.037356	0.00027
592	C	0.783416	0.020483	0.314544
593	C	0.767286	0.483234	0.314344
594	C	0.732928	0.461905	0.33226
595	C	0.715494	0.478779	0.017981
596	C	0.731623	0.016029	0.018176
597	O	0.785158	0.468524	0.295109
598	H	0.798989	0.465792	0.319034
599	O	0.816703	0.040032	0.297572
600	O	0.682214	0.459229	0.034969
601	O	0.713758	0.030735	0.037433
602	H	0.684871	0.459123	0.067498
603	H	0.814057	0.040146	0.265043
604	H	0.699925	0.033475	0.013517
605	C	0.715014	0.422494	0.331545
606	H	0.730874	0.413054	0.314494
607	H	0.690482	0.41276	0.312612
608	C	0.783906	0.076767	0.001007
609	H	0.808425	0.08649	0.019959
610	H	0.76804	0.086205	0.01805
611	C	0.961735	0.228451	0.000369
612	C	0.978596	0.262766	0.314675
613	C	0.515844	0.283889	0.314454
614	C	0.537185	0.270858	0.332322
615	C	0.520326	0.236545	0.018022
616	C	0.983076	0.215419	0.018239
617	O	0.530539	0.316475	0.295238
618	H	0.53328	0.333031	0.319179
619	O	0.959035	0.276498	0.297733
620	O	0.539886	0.222807	0.034955
621	O	0.968381	0.182832	0.037452
622	H	0.540006	0.225548	0.067488
623	H	0.95892	0.273759	0.265199
624	H	0.965646	0.16628	0.01351
625	C	0.576595	0.292359	0.331571
626	H	0.586023	0.317668	0.314562
627	H	0.586323	0.277577	0.312581
628	C	0.922325	0.206945	0.001104
629	H	0.912587	0.221724	0.020081
630	H	0.912897	0.181636	0.018117
631	C	0.682667	0.312115	0.378911
632	C	0.645416	0.295895	0.378951
633	C	0.628762	0.316454	0.378851
634	C	0.649795	0.353705	0.378931
635	C	0.68701	0.370361	0.378874
636	C	0.703226	0.349326	0.379014
637	H	0.63789	0.368791	0.378245
638	H	0.730217	0.36123	0.378325
639	H	0.63033	0.268901	0.378285
640	N	0.70013	0.292222	0.377449
641	H	0.686666	0.269544	0.396085
642	N	0.706916	0.407723	0.377399
643	H	0.729704	0.416928	0.395799
644	N	0.591401	0.298996	0.377405
645	H	0.582202	0.312554	0.395872
646	C	0.816264	0.187164	0.287055
647	C	0.853516	0.203391	0.287019
648	C	0.870175	0.182838	0.287128
649	C	0.849146	0.145586	0.287019
650	C	0.811933	0.128924	0.287053
651	C	0.795709	0.149952	0.286945
652	H	0.861057	0.130504	0.287697
653	H	0.768718	0.138043	0.287586
654	H	0.868594	0.230383	0.287713
655	N	0.798793	0.207052	0.288507
656	H	0.812253	0.229726	0.269866
657	N	0.792033	0.091561	0.288497
658	H	0.769258	0.082362	0.270072
659	N	0.907537	0.200302	0.288593
660	H	0.916744	0.186746	0.270143
661	C	0.77075	0.233211	0.33362
662	C	0.736359	0.215606	0.648154
663	C	0.715153	0.231641	0.647974
664	C	0.728169	0.266064	0.665662
665	C	0.762563	0.28367	0.351131
666	C	0.783771	0.267637	0.351304
667	O	0.682494	0.213609	0.628968
668	H	0.666053	0.199848	0.653034
669	O	0.722636	0.182256	0.631396
670	O	0.77629	0.317023	0.367882
671	O	0.816429	0.285669	0.370311
672	H	0.773696	0.314518	0.400439
673	H	0.725229	0.184762	0.59884
674	H	0.832869	0.299427	0.346244
675	C	0.706578	0.283879	0.664949
676	H	0.681206	0.267875	0.648154
677	H	0.721224	0.308318	0.645766
678	C	0.792343	0.215398	0.334336
679	H	0.777695	0.190958	0.353523
680	H	0.817715	0.231402	0.351131
681	C	0.765984	0.037356	0.333604
682	C	0.783416	0.020483	0.647878
683	C	0.767286	0.483234	0.647678
684	C	0.732928	0.461905	0.665592
685	C	0.715494	0.478779	0.351314
686	C	0.731623	0.016029	0.351511
687	O	0.785158	0.468524	0.628442
688	H	0.798989	0.465792	0.652368
689	O	0.816703	0.040032	0.630907
690	O	0.682214	0.459229	0.368302
691	O	0.713758	0.030735	0.370767
692	H	0.684871	0.459123	0.400832
693	H	0.814057	0.040146	0.598377
694	H	0.699925	0.033475	0.346851
695	C	0.715014	0.422494	0.664879
696	H	0.730874	0.413054	0.647828
697	H	0.690482	0.41276	0.645946
698	C	0.783906	0.076767	0.33434
699	H	0.808425	0.08649	0.353293
700	H	0.76804	0.086205	0.351384
701	C	0.961735	0.228451	0.3337
702	C	0.978596	0.262766	0.648008
703	C	0.515844	0.283889	0.647788
704	C	0.537185	0.270858	0.665655
705	C	0.520326	0.236545	0.351354
706	C	0.983076	0.215419	0.351571
707	O	0.530539	0.316475	0.628572
708	H	0.53328	0.333031	0.652511
709	O	0.959035	0.276498	0.631066
710	O	0.539886	0.222807	0.368289
711	O	0.968381	0.182832	0.370787
712	H	0.540006	0.225548	0.400822
713	H	0.95892	0.273759	0.598533
714	H	0.965646	0.16628	0.346844
715	C	0.576595	0.292359	0.664905
716	H	0.586023	0.317668	0.647894
717	H	0.586323	0.277577	0.645912
718	C	0.922325	0.206945	0.334436
719	H	0.912587	0.221724	0.353413
720	H	0.912897	0.181636	0.351451
721	C	0.682667	0.312115	0.712241
722	C	0.645416	0.295895	0.712285
723	C	0.628762	0.316454	0.712185
724	C	0.649795	0.353705	0.712261
725	C	0.68701	0.370361	0.712208
726	C	0.703226	0.349326	0.712345
727	H	0.63789	0.368791	0.711579
728	H	0.730217	0.36123	0.711655
729	H	0.63033	0.268901	0.711619
730	N	0.70013	0.292222	0.710783
731	H	0.686666	0.269544	0.729419
732	N	0.706916	0.407723	0.710733
733	H	0.729704	0.416928	0.729133
734	N	0.591401	0.298996	0.710739
735	H	0.582202	0.312554	0.729203
736	C	0.816264	0.187164	0.620387
737	C	0.853516	0.203391	0.620351
738	C	0.870175	0.182838	0.620461
739	C	0.849146	0.145586	0.620351
740	C	0.811933	0.128924	0.620384
741	C	0.795709	0.149952	0.620278
742	H	0.861057	0.130504	0.62103
743	H	0.768718	0.138043	0.62092
744	H	0.868594	0.230383	0.621047
745	N	0.798793	0.207052	0.62184
746	H	0.812253	0.229726	0.6032
747	N	0.792033	0.091561	0.62183
748	H	0.769258	0.082362	0.603406
749	N	0.907537	0.200302	0.621926
750	H	0.916744	0.186746	0.603476
751	C	0.77075	0.233211	0.666951
752	C	0.736359	0.215606	0.981485
753	C	0.715153	0.231641	0.981308
754	C	0.728169	0.266064	0.998995
755	C	0.762563	0.28367	0.684465
756	C	0.783771	0.267637	0.684638
757	O	0.682494	0.213609	0.962302
758	H	0.666053	0.199848	0.986364
759	O	0.722636	0.182256	0.96473
760	O	0.77629	0.317023	0.701213
761	O	0.816429	0.285669	0.703644
762	H	0.773696	0.314518	0.733769
763	H	0.725229	0.184762	0.932173
764	H	0.832869	0.299427	0.679578
765	C	0.706578	0.283879	0.998283
766	H	0.681206	0.267875	0.981488
767	H	0.721224	0.308318	0.979096
768	C	0.792343	0.215398	0.66767
769	H	0.777695	0.190958	0.686856
770	H	0.817715	0.231402	0.684465
771	C	0.765984	0.037356	0.666937
772	C	0.783416	0.020483	0.981208
773	C	0.767286	0.483234	0.981012
774	C	0.732928	0.461905	0.998925
775	C	0.715494	0.478779	0.684648
776	C	0.731623	0.016029	0.684841
777	O	0.785158	0.468524	0.961775
778	H	0.798989	0.465792	0.985698
779	O	0.816703	0.040032	0.964237
780	O	0.682214	0.459229	0.701636
781	O	0.713758	0.030735	0.704101
782	H	0.684871	0.459123	0.734162
783	H	0.814057	0.040146	0.931707
784	H	0.699925	0.033475	0.680185
785	C	0.715014	0.422494	0.998213
786	H	0.730874	0.413054	0.981162
787	H	0.690482	0.41276	0.97928
788	C	0.783906	0.076767	0.667673
789	H	0.808425	0.08649	0.686623
790	H	0.76804	0.086205	0.684718
791	C	0.961735	0.228451	0.667034
792	C	0.978596	0.262766	0.981341
793	C	0.515844	0.283889	0.981118
794	C	0.537185	0.270858	0.998989
795	C	0.520326	0.236545	0.684688
796	C	0.983076	0.215419	0.684904
797	O	0.530539	0.316475	0.961902
798	H	0.53328	0.333031	0.985845
799	O	0.959035	0.276498	0.964397
800	O	0.539886	0.222807	0.701619
801	O	0.968381	0.182832	0.704117
802	H	0.540006	0.225548	0.734152
803	H	0.95892	0.273759	0.931864
804	H	0.965646	0.16628	0.680175
805	C	0.576595	0.292359	0.998236
806	H	0.586023	0.317668	0.981228
807	H	0.586323	0.277577	0.979246
808	C	0.922325	0.206945	0.66777
809	H	0.912587	0.221724	0.686746
810	H	0.912897	0.181636	0.684781
811	C	0.682667	0.812114	0.045576
812	C	0.645416	0.795894	0.045618
813	C	0.628762	0.816453	0.045518
814	C	0.649796	0.853704	0.045597
815	C	0.687009	0.870361	0.045542
816	C	0.703227	0.849328	0.045681
817	H	0.63789	0.86879	0.044912
818	H	0.730219	0.86123	0.044992
819	H	0.630333	0.768903	0.04495
820	N	0.700132	0.792221	0.044117
821	H	0.686667	0.769546	0.062755
822	N	0.706915	0.907722	0.044067
823	H	0.729703	0.916927	0.062467
824	N	0.591401	0.798996	0.044072
825	H	0.582204	0.812556	0.062537
826	C	0.816263	0.687162	0.953721
827	C	0.853515	0.70339	0.953685
828	C	0.870174	0.682836	0.953795
829	C	0.849146	0.645585	0.953685
830	C	0.811933	0.628923	0.953718
831	C	0.795708	0.649951	0.953611
832	H	0.861056	0.630502	0.954364
833	H	0.768717	0.638041	0.954251
834	H	0.868594	0.730383	0.954381
835	N	0.798792	0.70705	0.955174
836	H	0.812251	0.729722	0.93653
837	N	0.792033	0.591559	0.955164
838	H	0.769258	0.582362	0.936737
839	N	0.907537	0.700302	0.95526
840	H	0.916745	0.686744	0.93681
841	C	0.770754	0.733213	0.000286
842	C	0.736358	0.715604	0.314823
843	C	0.715152	0.731639	0.314646
844	C	0.728169	0.766063	0.33233
845	C	0.762563	0.783669	0.017796
846	C	0.783774	0.767639	0.017969
847	O	0.682493	0.713605	0.295644
848	H	0.666051	0.699844	0.319709
849	O	0.722635	0.682254	0.298071
850	O	0.77629	0.817022	0.034542
851	O	0.81643	0.785671	0.03697
852	H	0.773699	0.814523	0.067098
853	H	0.725226	0.684758	0.265515
854	H	0.83287	0.799429	0.012904
855	C	0.706576	0.783875	0.331616
856	H	0.681203	0.767869	0.314825
857	H	0.721223	0.808314	0.31243
858	C	0.792345	0.715398	0.001005
859	H	0.7777	0.690962	0.020192
860	H	0.817718	0.731404	0.017797
861	C	0.765984	0.537356	0.000269
862	C	0.783416	0.520482	0.314543
863	C	0.767285	0.983234	0.314345
864	C	0.732929	0.961907	0.332261
865	C	0.715494	0.978778	0.017982
866	C	0.731622	0.516027	0.018175
867	O	0.785159	0.968526	0.295109
868	H	0.79899	0.965794	0.319035
869	O	0.816703	0.540032	0.297571
870	O	0.682215	0.959228	0.03497
871	O	0.713758	0.530734	0.037432
872	H	0.68487	0.959123	0.067499
873	H	0.814057	0.540145	0.265042
874	H	0.699924	0.533474	0.013516
875	C	0.715015	0.922496	0.331546
876	H	0.730874	0.913053	0.314495
877	H	0.690482	0.91276	0.312613
878	C	0.783906	0.576767	0.001006
879	H	0.808427	0.58649	0.019958
880	H	0.768039	0.586204	0.01805
881	C	0.961735	0.72845	0.000369
882	C	0.978598	0.762766	0.314673
883	C	0.515845	0.783889	0.314452
884	C	0.537186	0.770857	0.332322
885	C	0.520325	0.736545	0.018024
886	C	0.983076	0.715419	0.018241
887	O	0.530541	0.816475	0.295233
888	H	0.533281	0.833031	0.319174
889	O	0.959034	0.776498	0.297729
890	O	0.539885	0.722807	0.034958
891	O	0.968381	0.682833	0.037457
892	H	0.540005	0.72555	0.067491
893	H	0.95892	0.773756	0.265196
894	H	0.965644	0.66628	0.013516
895	C	0.576597	0.792358	0.331571
896	H	0.586024	0.817667	0.314562
897	H	0.586324	0.777574	0.31258
898	C	0.922324	0.706944	0.001104
899	H	0.912588	0.721726	0.020081
900	H	0.912898	0.681638	0.018118
901	C	0.682667	0.812114	0.378908
902	C	0.645416	0.795894	0.378951
903	C	0.628762	0.816453	0.378851
904	C	0.649796	0.853704	0.378931
905	C	0.687009	0.870361	0.378874
906	C	0.703227	0.849328	0.379014
907	H	0.63789	0.86879	0.378245
908	H	0.730219	0.86123	0.378325
909	H	0.630333	0.768903	0.378285
910	N	0.700132	0.792221	0.377449
911	H	0.686667	0.769546	0.396089
912	N	0.706915	0.907722	0.377399
913	H	0.729703	0.916927	0.395799
914	N	0.591401	0.798996	0.377405
915	H	0.582204	0.812556	0.395869
916	C	0.816263	0.687162	0.287055
917	C	0.853515	0.70339	0.28702
918	C	0.870174	0.682836	0.287128
919	C	0.849146	0.645585	0.287019
920	C	0.811933	0.628923	0.287052
921	C	0.795708	0.649951	0.286944
922	H	0.861056	0.630502	0.287697
923	H	0.768717	0.638041	0.287586
924	H	0.868594	0.730383	0.287714
925	N	0.798792	0.70705	0.288507
926	H	0.812251	0.729722	0.269864
927	N	0.792033	0.591559	0.288497
928	H	0.769258	0.582362	0.270072
929	N	0.907537	0.700302	0.288594
930	H	0.916745	0.686744	0.270144
931	C	0.770754	0.733213	0.33362
932	C	0.736358	0.715604	0.648158
933	C	0.715152	0.731639	0.647978
934	C	0.728169	0.766063	0.665665
935	C	0.762563	0.783669	0.351128
936	C	0.783774	0.767639	0.351301
937	O	0.682493	0.713605	0.628978
938	H	0.666051	0.699844	0.653041
939	O	0.722635	0.682254	0.631403
940	O	0.77629	0.817022	0.367876
941	O	0.81643	0.785671	0.370304
942	H	0.773699	0.814523	0.400432
943	H	0.725226	0.684758	0.598846
944	H	0.83287	0.799429	0.346238
945	C	0.706576	0.783875	0.664949
946	H	0.681203	0.767869	0.648158
947	H	0.721223	0.808314	0.645763
948	C	0.792345	0.715398	0.334336
949	H	0.7777	0.690962	0.353526
950	H	0.817718	0.731404	0.351131
951	C	0.765984	0.537356	0.333604
952	C	0.783416	0.520482	0.647874
953	C	0.767285	0.983234	0.647678
954	C	0.732929	0.961907	0.665595
955	C	0.715494	0.978778	0.351314
956	C	0.731622	0.516027	0.351507
957	O	0.785159	0.968526	0.628442
958	H	0.79899	0.965794	0.652368
959	O	0.816703	0.540032	0.630903
960	O	0.682215	0.959228	0.368302
961	O	0.713758	0.530734	0.370767
962	H	0.68487	0.959123	0.400832
963	H	0.814057	0.540145	0.598373
964	H	0.699924	0.533474	0.346851
965	C	0.715015	0.922496	0.664879
966	H	0.730874	0.913053	0.647828
967	H	0.690482	0.91276	0.645946
968	C	0.783906	0.576767	0.33434
969	H	0.808427	0.58649	0.353289
970	H	0.768039	0.586204	0.351384
971	C	0.961735	0.72845	0.3337
972	C	0.978598	0.762766	0.648004
973	C	0.515845	0.783889	0.647784
974	C	0.537186	0.770857	0.665655
975	C	0.520325	0.736545	0.351357
976	C	0.983076	0.715419	0.351574
977	O	0.530541	0.816475	0.628565
978	H	0.533281	0.833031	0.652508
979	O	0.959034	0.776498	0.631063
980	O	0.539885	0.722807	0.368292
981	O	0.968381	0.682833	0.37079
982	H	0.540005	0.72555	0.400825
983	H	0.95892	0.773756	0.59853
984	H	0.965644	0.66628	0.346847
985	C	0.576597	0.792358	0.664902
986	H	0.586024	0.817667	0.647894
987	H	0.586324	0.777574	0.645912
988	C	0.922324	0.706944	0.334436
989	H	0.912588	0.721726	0.353413
990	H	0.912898	0.681638	0.351451
991	C	0.682667	0.812114	0.712241
992	C	0.645416	0.795894	0.712285
993	C	0.628762	0.816453	0.712185
994	C	0.649796	0.853704	0.712261
995	C	0.687009	0.870361	0.712208
996	C	0.703227	0.849328	0.712348
997	H	0.63789	0.86879	0.711579
998	H	0.730219	0.86123	0.711659
999	H	0.630333	0.768903	0.711615
1000	N	0.700132	0.792221	0.710783
1001	H	0.686667	0.769546	0.729422
1002	N	0.706915	0.907722	0.710733
1003	H	0.729703	0.916927	0.729133
1004	N	0.591401	0.798996	0.710739
1005	H	0.582204	0.812556	0.729203
1006	C	0.816263	0.687162	0.620387
1007	C	0.853515	0.70339	0.620354
1008	C	0.870174	0.682836	0.620461
1009	C	0.849146	0.645585	0.620351
1010	C	0.811933	0.628923	0.620384
1011	C	0.795708	0.649951	0.620278
1012	H	0.861056	0.630502	0.62103
1013	H	0.768717	0.638041	0.620917
1014	H	0.868594	0.730383	0.621047
1015	N	0.798792	0.70705	0.62184
1016	H	0.812251	0.729722	0.603197
1017	N	0.792033	0.591559	0.62183
1018	H	0.769258	0.582362	0.603403
1019	N	0.907537	0.700302	0.621926
1020	H	0.916745	0.686744	0.603476
1021	C	0.770754	0.733213	0.666951
1022	C	0.736358	0.715604	0.981488
1023	C	0.715152	0.731639	0.981311
1024	C	0.728169	0.766063	0.998995
1025	C	0.762563	0.783669	0.684461
1026	C	0.783774	0.767639	0.684635
1027	O	0.682493	0.713605	0.962308
1028	H	0.666051	0.699844	0.986374
1029	O	0.722635	0.682254	0.964737
1030	O	0.77629	0.817022	0.701206
1031	O	0.81643	0.785671	0.703634
1032	H	0.773699	0.814523	0.733763
1033	H	0.725226	0.684758	0.93218
1034	H	0.83287	0.799429	0.679568
1035	C	0.706576	0.783875	0.998283
1036	H	0.681203	0.767869	0.981491
1037	H	0.721223	0.808314	0.979096
1038	C	0.792345	0.715398	0.66767
1039	H	0.7777	0.690962	0.68686
1040	H	0.817718	0.731404	0.684461
1041	C	0.765984	0.537356	0.666934
1042	C	0.783416	0.520482	0.981208
1043	C	0.767285	0.983234	0.981012
1044	C	0.732929	0.961907	0.998925
1045	C	0.715494	0.978778	0.684648
1046	C	0.731622	0.516027	0.684841
1047	O	0.785159	0.968526	0.961775
1048	H	0.79899	0.965794	0.985702
1049	O	0.816703	0.540032	0.964237
1050	O	0.682215	0.959228	0.701636
1051	O	0.713758	0.530734	0.704097
1052	H	0.68487	0.959123	0.734166
1053	H	0.814057	0.540145	0.931707
1054	H	0.699924	0.533474	0.680181
1055	C	0.715015	0.922496	0.998213
1056	H	0.730874	0.913053	0.981162
1057	H	0.690482	0.91276	0.97928
1058	C	0.783906	0.576767	0.66767
1059	H	0.808427	0.58649	0.686623
1060	H	0.768039	0.586204	0.684715
1061	C	0.961735	0.72845	0.667034
1062	C	0.978598	0.762766	0.981338
1063	C	0.515845	0.783889	0.981118
1064	C	0.537186	0.770857	0.998989
1065	C	0.520325	0.736545	0.684691
1066	C	0.983076	0.715419	0.684908
1067	O	0.530541	0.816475	0.961899
1068	H	0.533281	0.833031	0.985838
1069	O	0.959034	0.776498	0.964394
1070	O	0.539885	0.722807	0.701622
1071	O	0.968381	0.682833	0.704124
1072	H	0.540005	0.72555	0.734159
1073	H	0.95892	0.773756	0.93186
1074	H	0.965644	0.66628	0.680181
1075	C	0.576597	0.792358	0.998236
1076	H	0.586024	0.817667	0.981228
1077	H	0.586324	0.777574	0.979246
1078	C	0.922324	0.706944	0.66777
1079	H	0.912588	0.721726	0.686746
1080	H	0.912898	0.681638	0.684785
