data_C792H504N144O72_2018-02-15_10:35:32
#******************************************
#
# CIF file created by Zeo++
# Zeo++ is an open source package to
# analyze microporous materials
#
#*******************************************

_cell_length_a		46.4618   
_cell_length_b		46.4619   
_cell_length_c		29.6388   
_cell_angle_alpha		90   
_cell_angle_beta		90   
_cell_angle_gamma		120   

_symmetry_space_group_name_H-M		'P1'
_symmetry_Int_Tables_number		1
_symmetry_cell_setting		Monoclinic

loop_
_symmetry_equiv_pos_as_xyz
'+x,+y,+z'

loop_
_atom_site_label
_atom_site_type_symbol
_atom_site_fract_x
_atom_site_fract_y
_atom_site_fract_z
1	C	0.027208	0.26521	0.339886
2	C	0.046342	0.300814	0.338445
3	C	0.081481	0.319036	0.337051
4	C	0.098937	0.301393	0.337287
5	C	0.08182	0.266314	0.005251
6	C	0.046685	0.249091	0.007176
7	H	0.035081	0.314754	0.337457
8	O	0.132875	0.318502	0.337116
9	H	0.035703	0.223924	0.008716
10	C	0.115678	0.246901	0.044833
11	C	0.100675	0.250008	0.004658
12	N	0.117716	0.253519	0.299077
13	C	0.103243	0.247583	0.090558
14	H	0.118415	0.244942	0.116569
15	H	0.077769	0.227132	0.094122
16	H	0.103728	0.271031	0.096188
17	C	0.099887	0.354158	0.335113
18	N	0.11461	0.369785	0.041107
19	C	0.11784	0.369696	0.295482
20	H	0.111493	0.357481	0.265246
21	C	0.027208	0.26521	0.67322
22	C	0.046342	0.300814	0.671776
23	C	0.081481	0.319036	0.670382
24	C	0.098937	0.301393	0.670619
25	C	0.08182	0.266314	0.338584
26	C	0.046685	0.249091	0.340507
27	H	0.035081	0.314754	0.670787
28	O	0.132875	0.318502	0.67045
29	H	0.035703	0.223924	0.342049
30	C	0.115678	0.246901	0.378167
31	C	0.100675	0.250008	0.337993
32	N	0.117716	0.253519	0.632409
33	C	0.103243	0.247583	0.423891
34	H	0.118415	0.244942	0.449901
35	H	0.077769	0.227132	0.427454
36	H	0.103728	0.271031	0.429522
37	C	0.099887	0.354158	0.668446
38	N	0.11461	0.369785	0.374439
39	C	0.11784	0.369696	0.628815
40	H	0.111493	0.357481	0.598578
41	C	0.027208	0.26521	0.006555
42	C	0.046342	0.300814	0.00511
43	C	0.081481	0.319036	0.003716
44	C	0.098937	0.301393	0.003952
45	C	0.08182	0.266314	0.671918
46	C	0.046685	0.249091	0.673841
47	H	0.035081	0.314754	0.004121
48	O	0.132875	0.318502	0.00378
49	H	0.035703	0.223924	0.675383
50	C	0.115678	0.246901	0.711498
51	C	0.100675	0.250008	0.671327
52	N	0.117716	0.253519	0.965742
53	C	0.103243	0.247583	0.757225
54	H	0.118415	0.244942	0.783235
55	H	0.077769	0.227132	0.760788
56	H	0.103728	0.271031	0.762853
57	C	0.099887	0.354158	0.00178
58	N	0.11461	0.369785	0.707773
59	C	0.11784	0.369696	0.962149
60	H	0.111493	0.357481	0.931912
61	C	0.027207	0.765208	0.339886
62	C	0.046341	0.800812	0.338445
63	C	0.081481	0.819036	0.337051
64	C	0.098936	0.801391	0.337287
65	C	0.081819	0.766314	0.005251
66	C	0.046685	0.749091	0.007176
67	H	0.035081	0.814752	0.337457
68	O	0.132876	0.818502	0.337116
69	H	0.035702	0.723923	0.008716
70	C	0.115678	0.746902	0.044833
71	C	0.100676	0.750008	0.004658
72	N	0.117714	0.753517	0.299077
73	C	0.103242	0.747583	0.090558
74	H	0.118414	0.744941	0.116569
75	H	0.07777	0.727131	0.094122
76	H	0.103727	0.771031	0.096188
77	C	0.099887	0.854156	0.335113
78	N	0.11461	0.869786	0.041107
79	C	0.117841	0.869696	0.295482
80	H	0.111493	0.857481	0.265246
81	C	0.027207	0.765208	0.67322
82	C	0.046341	0.800812	0.671776
83	C	0.081481	0.819036	0.670382
84	C	0.098936	0.801391	0.670619
85	C	0.081819	0.766314	0.338584
86	C	0.046685	0.749091	0.340507
87	H	0.035081	0.814752	0.670787
88	O	0.132876	0.818502	0.67045
89	H	0.035702	0.723923	0.342049
90	C	0.115678	0.746902	0.378167
91	C	0.100676	0.750008	0.337993
92	N	0.117714	0.753517	0.632409
93	C	0.103242	0.747583	0.423891
94	H	0.118414	0.744941	0.449901
95	H	0.07777	0.727131	0.427454
96	H	0.103727	0.771031	0.429522
97	C	0.099887	0.854156	0.668446
98	N	0.11461	0.869786	0.374439
99	C	0.117841	0.869696	0.628815
100	H	0.111493	0.857481	0.598578
101	C	0.027207	0.765208	0.006555
102	C	0.046341	0.800812	0.00511
103	C	0.081481	0.819036	0.003716
104	C	0.098936	0.801391	0.003952
105	C	0.081819	0.766314	0.671918
106	C	0.046685	0.749091	0.673841
107	H	0.035081	0.814752	0.004121
108	O	0.132876	0.818502	0.00378
109	H	0.035702	0.723923	0.675383
110	C	0.115678	0.746902	0.711498
111	C	0.100676	0.750008	0.671327
112	N	0.117714	0.753517	0.965742
113	C	0.103242	0.747583	0.757225
114	H	0.118414	0.744941	0.783235
115	H	0.07777	0.727131	0.760788
116	H	0.103727	0.771031	0.762853
117	C	0.099887	0.854156	0.00178
118	N	0.11461	0.869786	0.707773
119	C	0.117841	0.869696	0.962149
120	H	0.111493	0.857481	0.931912
121	H	0.139552	0.322518	0.035682
122	C	0.214421	0.248559	0.338489
123	C	0.196233	0.265516	0.337226
124	C	0.213918	0.300615	0.337639
125	H	0.200459	0.223362	0.337375
126	O	0.196846	0.317483	0.337676
127	H	0.192871	0.320087	0.036279
128	H	0.226883	0.197352	0.008864
129	C	0.214577	0.416334	0.337477
130	C	0.196649	0.433485	0.005245
131	C	0.21459	0.468622	0.006982
132	O	0.197706	0.382395	0.337494
133	H	0.226455	0.032086	0.337953
134	H	0.195212	0.375807	0.036087
135	H	0.200417	0.479624	0.008239
136	C	0.161099	0.248842	0.33535
137	N	0.145452	0.247885	0.041324
138	C	0.145731	0.251419	0.295649
139	H	0.15798	0.257113	0.265435
140	C	0.143375	0.399564	0.044749
141	C	0.161487	0.414666	0.004621
142	N	0.147978	0.397682	0.299008
143	C	0.156441	0.411963	0.090502
144	H	0.138623	0.396725	0.116469
145	H	0.161393	0.437409	0.094121
146	H	0.179435	0.41154	0.096146
147	H	0.229675	0.158324	0.094226
148	H	0.139552	0.322518	0.369013
149	C	0.214421	0.248559	0.671823
150	C	0.196233	0.265516	0.670558
151	C	0.213918	0.300615	0.670973
152	H	0.200459	0.223362	0.670706
153	O	0.196846	0.317483	0.671007
154	H	0.192871	0.320087	0.369611
155	H	0.226883	0.197352	0.342197
156	C	0.214577	0.416334	0.670811
157	C	0.196649	0.433485	0.338577
158	C	0.21459	0.468622	0.340315
159	O	0.197706	0.382395	0.670828
160	H	0.226455	0.032086	0.671287
161	H	0.195212	0.375807	0.369418
162	H	0.200417	0.479624	0.341573
163	C	0.161099	0.248842	0.668682
164	N	0.145452	0.247885	0.374658
165	C	0.145731	0.251419	0.628981
166	H	0.15798	0.257113	0.598767
167	C	0.143375	0.399564	0.378083
168	C	0.161487	0.414666	0.337956
169	N	0.147978	0.397682	0.632341
170	C	0.156441	0.411963	0.423834
171	H	0.138623	0.396725	0.449803
172	H	0.161393	0.437409	0.427454
173	H	0.179435	0.41154	0.429478
174	H	0.229675	0.158324	0.427558
175	H	0.139552	0.322518	0.702347
176	C	0.214421	0.248559	0.005157
177	C	0.196233	0.265516	0.003892
178	C	0.213918	0.300615	0.004307
179	H	0.200459	0.223362	0.00404
180	O	0.196846	0.317483	0.00434
181	H	0.192871	0.320087	0.702945
182	H	0.226883	0.197352	0.675531
183	C	0.214577	0.416334	0.004145
184	C	0.196649	0.433485	0.671911
185	C	0.21459	0.468622	0.673648
186	O	0.197706	0.382395	0.004158
187	H	0.226455	0.032086	0.004621
188	H	0.195212	0.375807	0.702752
189	H	0.200417	0.479624	0.674904
190	C	0.161099	0.248842	0.002016
191	N	0.145452	0.247885	0.707989
192	C	0.145731	0.251419	0.962314
193	H	0.15798	0.257113	0.932101
194	C	0.143375	0.399564	0.711413
195	C	0.161487	0.414666	0.67129
196	N	0.147978	0.397682	0.965675
197	C	0.156441	0.411963	0.757167
198	H	0.138623	0.396725	0.783133
199	H	0.161393	0.437409	0.760788
200	H	0.179435	0.41154	0.762812
201	H	0.229675	0.158324	0.760892
202	H	0.139551	0.822516	0.035682
203	C	0.21442	0.748557	0.338489
204	C	0.196233	0.765516	0.337226
205	C	0.213918	0.800616	0.337639
206	H	0.200458	0.723361	0.337375
207	O	0.196845	0.817481	0.337676
208	H	0.192871	0.820085	0.036279
209	H	0.226884	0.697353	0.008864
210	C	0.214576	0.916335	0.337477
211	C	0.19665	0.933485	0.005245
212	C	0.214591	0.968622	0.006982
213	O	0.197704	0.882393	0.337494
214	H	0.226454	0.532085	0.337953
215	H	0.195212	0.875807	0.036087
216	H	0.200416	0.979622	0.008239
217	C	0.161098	0.74884	0.33535
218	N	0.145452	0.747886	0.041324
219	C	0.145731	0.751417	0.295649
220	H	0.15798	0.757114	0.265435
221	C	0.143374	0.899562	0.044749
222	C	0.161488	0.914667	0.004621
223	N	0.147977	0.897683	0.299008
224	C	0.156441	0.911963	0.090502
225	H	0.138622	0.896726	0.116469
226	H	0.161392	0.93741	0.094121
227	H	0.179434	0.911538	0.096146
228	H	0.229675	0.658324	0.094226
229	H	0.139551	0.822516	0.369013
230	C	0.21442	0.748557	0.671823
231	C	0.196233	0.765516	0.670558
232	C	0.213918	0.800616	0.670973
233	H	0.200458	0.723361	0.670706
234	O	0.196845	0.817481	0.671007
235	H	0.192871	0.820085	0.369611
236	H	0.226884	0.697353	0.342197
237	C	0.214576	0.916335	0.670811
238	C	0.19665	0.933485	0.338577
239	C	0.214591	0.968622	0.340315
240	O	0.197704	0.882393	0.670828
241	H	0.226454	0.532085	0.671287
242	H	0.195212	0.875807	0.369418
243	H	0.200416	0.979622	0.341573
244	C	0.161098	0.74884	0.668682
245	N	0.145452	0.747886	0.374658
246	C	0.145731	0.751417	0.628981
247	H	0.15798	0.757114	0.598767
248	C	0.143374	0.899562	0.378083
249	C	0.161488	0.914667	0.337956
250	N	0.147977	0.897683	0.632341
251	C	0.156441	0.911963	0.423834
252	H	0.138622	0.896726	0.449803
253	H	0.161392	0.93741	0.427454
254	H	0.179434	0.911538	0.429478
255	H	0.229675	0.658324	0.427558
256	H	0.139551	0.822516	0.702347
257	C	0.21442	0.748557	0.005157
258	C	0.196233	0.765516	0.003892
259	C	0.213918	0.800616	0.004307
260	H	0.200458	0.723361	0.00404
261	O	0.196845	0.817481	0.00434
262	H	0.192871	0.820085	0.702945
263	H	0.226884	0.697353	0.675531
264	C	0.214576	0.916335	0.004145
265	C	0.19665	0.933485	0.671911
266	C	0.214591	0.968622	0.673648
267	O	0.197704	0.882393	0.004158
268	H	0.226454	0.532085	0.004621
269	H	0.195212	0.875807	0.702752
270	H	0.200416	0.979622	0.674904
271	C	0.161098	0.74884	0.002016
272	N	0.145452	0.747886	0.707989
273	C	0.145731	0.751417	0.962314
274	H	0.15798	0.757114	0.932101
275	C	0.143374	0.899562	0.711413
276	C	0.161488	0.914667	0.67129
277	N	0.147977	0.897683	0.965675
278	C	0.156441	0.911963	0.757167
279	H	0.138622	0.896726	0.783133
280	H	0.161392	0.93741	0.760788
281	H	0.179434	0.911538	0.762812
282	H	0.229675	0.658324	0.760892
283	C	0.250024	0.264989	0.33994
284	C	0.249002	0.318534	0.005454
285	C	0.266183	0.300583	0.007299
286	C	0.268209	0.2471	0.339903
287	C	0.252049	0.211506	0.007235
288	C	0.269223	0.193551	0.005265
289	H	0.291351	0.314739	0.008866
290	C	0.250191	0.488066	0.339886
291	C	0.266628	0.468897	0.338671
292	C	0.249677	0.433758	0.337176
293	H	0.29183	0.480123	0.33798
294	C	0.268095	0.024144	0.339889
295	C	0.268608	0.078452	0.337202
296	C	0.251657	0.043314	0.338685
297	C	0.266355	0.415303	0.335727
298	N	0.26753	0.400687	0.041631
299	C	0.268566	0.37193	0.045164
300	C	0.265384	0.353688	0.005127
301	N	0.261636	0.367128	0.299576
302	C	0.263586	0.397173	0.296102
303	H	0.257868	0.403605	0.265805
304	C	0.268071	0.358887	0.090874
305	H	0.270717	0.376704	0.116882
306	H	0.288596	0.353964	0.094318
307	H	0.244686	0.335881	0.096613
308	C	0.251931	0.096907	0.335726
309	N	0.250763	0.111556	0.041616
310	C	0.249679	0.14029	0.045136
311	C	0.252829	0.158377	0.004978
312	N	0.256567	0.145014	0.29938
313	C	0.254654	0.114979	0.296042
314	H	0.260337	0.108487	0.265765
315	C	0.250202	0.153402	0.090802
316	H	0.247578	0.135624	0.116856
317	H	0.273589	0.176421	0.096478
318	C	0.250024	0.264989	0.673274
319	C	0.249002	0.318534	0.33879
320	C	0.266183	0.300583	0.340632
321	C	0.268209	0.2471	0.673237
322	C	0.252049	0.211506	0.340568
323	C	0.269223	0.193551	0.338597
324	H	0.291351	0.314739	0.342197
325	C	0.250191	0.488066	0.673217
326	C	0.266628	0.468897	0.672005
327	C	0.249677	0.433758	0.670507
328	H	0.29183	0.480123	0.671314
329	C	0.268095	0.024144	0.673223
330	C	0.268608	0.078452	0.670534
331	C	0.251657	0.043314	0.672015
332	C	0.266355	0.415303	0.66906
333	N	0.26753	0.400687	0.374965
334	C	0.268566	0.37193	0.378498
335	C	0.265384	0.353688	0.338459
336	N	0.261636	0.367128	0.632908
337	C	0.263586	0.397173	0.629436
338	H	0.257868	0.403605	0.599138
339	C	0.268071	0.358887	0.424208
340	H	0.270717	0.376704	0.450215
341	H	0.288596	0.353964	0.42765
342	H	0.244686	0.335881	0.429947
343	C	0.251931	0.096907	0.66906
344	N	0.250763	0.111556	0.374948
345	C	0.249679	0.14029	0.378467
346	C	0.252829	0.158377	0.338314
347	N	0.256567	0.145014	0.632712
348	C	0.254654	0.114979	0.629375
349	H	0.260337	0.108487	0.599097
350	C	0.250202	0.153402	0.424134
351	H	0.247578	0.135624	0.450188
352	H	0.273589	0.176421	0.429812
353	C	0.250024	0.264989	0.006608
354	C	0.249002	0.318534	0.67212
355	C	0.266183	0.300583	0.673966
356	C	0.268209	0.2471	0.006572
357	C	0.252049	0.211506	0.673901
358	C	0.269223	0.193551	0.671931
359	H	0.291351	0.314739	0.675531
360	C	0.250191	0.488066	0.006552
361	C	0.266628	0.468897	0.005336
362	C	0.249677	0.433758	0.003841
363	H	0.29183	0.480123	0.004644
364	C	0.268095	0.024144	0.006556
365	C	0.268608	0.078452	0.003868
366	C	0.251657	0.043314	0.005349
367	C	0.266355	0.415303	0.002394
368	N	0.26753	0.400687	0.708296
369	C	0.268566	0.37193	0.711828
370	C	0.265384	0.353688	0.671793
371	N	0.261636	0.367128	0.966242
372	C	0.263586	0.397173	0.962767
373	H	0.257868	0.403605	0.932472
374	C	0.268071	0.358887	0.757539
375	H	0.270717	0.376704	0.783548
376	H	0.288596	0.353964	0.760983
377	H	0.244686	0.335881	0.763278
378	C	0.251931	0.096907	0.00239
379	N	0.250763	0.111556	0.708282
380	C	0.249679	0.14029	0.711801
381	C	0.252829	0.158377	0.671644
382	N	0.256567	0.145014	0.966046
383	C	0.254654	0.114979	0.962709
384	H	0.260337	0.108487	0.932431
385	C	0.250202	0.153402	0.757468
386	H	0.247578	0.135624	0.783521
387	H	0.273589	0.176421	0.763143
388	C	0.250024	0.764989	0.33994
389	C	0.249002	0.818534	0.005454
390	C	0.266183	0.800583	0.007299
391	C	0.268209	0.7471	0.339903
392	C	0.252049	0.711507	0.007235
393	C	0.269222	0.69355	0.005265
394	H	0.291351	0.814739	0.008866
395	C	0.25019	0.988067	0.339886
396	C	0.266628	0.968895	0.338671
397	C	0.249677	0.933759	0.337176
398	H	0.29183	0.980124	0.33798
399	C	0.268095	0.524145	0.339889
400	C	0.268608	0.578453	0.337202
401	C	0.251657	0.543314	0.338685
402	C	0.266355	0.915303	0.335727
403	N	0.267529	0.900685	0.041631
404	C	0.268566	0.87193	0.045164
405	C	0.265383	0.853686	0.005127
406	N	0.261636	0.867129	0.299576
407	C	0.263585	0.897171	0.296102
408	H	0.257868	0.903605	0.265805
409	C	0.268071	0.858888	0.090874
410	H	0.270716	0.876702	0.116882
411	H	0.288596	0.853964	0.094318
412	H	0.244685	0.835879	0.096613
413	C	0.25193	0.596906	0.335725
414	N	0.250763	0.611557	0.041616
415	C	0.249678	0.640289	0.045136
416	C	0.252828	0.658377	0.004978
417	N	0.256567	0.645013	0.29938
418	C	0.254654	0.614979	0.296042
419	H	0.260337	0.608487	0.265765
420	C	0.250201	0.653401	0.090802
421	H	0.247578	0.635624	0.116856
422	H	0.273589	0.67642	0.096478
423	C	0.250024	0.764989	0.673274
424	C	0.249002	0.818534	0.33879
425	C	0.266183	0.800583	0.340632
426	C	0.268209	0.7471	0.673237
427	C	0.252049	0.711507	0.340568
428	C	0.269222	0.69355	0.338597
429	H	0.291351	0.814739	0.342197
430	C	0.25019	0.988067	0.673217
431	C	0.266628	0.968895	0.672005
432	C	0.249677	0.933759	0.670507
433	H	0.29183	0.980124	0.671314
434	C	0.268095	0.524145	0.673223
435	C	0.268608	0.578453	0.670534
436	C	0.251657	0.543314	0.672015
437	C	0.266355	0.915303	0.66906
438	N	0.267529	0.900685	0.374965
439	C	0.268566	0.87193	0.378498
440	C	0.265383	0.853686	0.338459
441	N	0.261636	0.867129	0.632908
442	C	0.263585	0.897171	0.629436
443	H	0.257868	0.903605	0.599138
444	C	0.268071	0.858888	0.424208
445	H	0.270716	0.876702	0.450215
446	H	0.288596	0.853964	0.42765
447	H	0.244685	0.835879	0.429947
448	C	0.25193	0.596906	0.66906
449	N	0.250763	0.611557	0.374948
450	C	0.249678	0.640289	0.378467
451	C	0.252828	0.658377	0.338314
452	N	0.256567	0.645013	0.632712
453	C	0.254654	0.614979	0.629375
454	H	0.260337	0.608487	0.599097
455	C	0.250201	0.653401	0.424134
456	H	0.247578	0.635624	0.450188
457	H	0.273589	0.67642	0.429812
458	C	0.250024	0.764989	0.006608
459	C	0.249002	0.818534	0.67212
460	C	0.266183	0.800583	0.673966
461	C	0.268209	0.7471	0.006572
462	C	0.252049	0.711507	0.673901
463	C	0.269222	0.69355	0.671931
464	H	0.291351	0.814739	0.675531
465	C	0.25019	0.988067	0.006552
466	C	0.266628	0.968895	0.005336
467	C	0.249677	0.933759	0.003841
468	H	0.29183	0.980124	0.004644
469	C	0.268095	0.524145	0.006556
470	C	0.268608	0.578453	0.003868
471	C	0.251657	0.543314	0.005349
472	C	0.266355	0.915303	0.002394
473	N	0.267529	0.900685	0.708296
474	C	0.268566	0.87193	0.711828
475	C	0.265383	0.853686	0.671793
476	N	0.261636	0.867129	0.966242
477	C	0.263585	0.897171	0.962767
478	H	0.257868	0.903605	0.932472
479	C	0.268071	0.858888	0.757539
480	H	0.270716	0.876702	0.783548
481	H	0.288596	0.853964	0.760983
482	H	0.244685	0.835879	0.763278
483	C	0.25193	0.596906	0.00239
484	N	0.250763	0.611557	0.708282
485	C	0.249678	0.640289	0.711801
486	C	0.252828	0.658377	0.671644
487	N	0.256567	0.645013	0.966046
488	C	0.254654	0.614979	0.962709
489	H	0.260337	0.608487	0.932431
490	C	0.250201	0.653401	0.757468
491	H	0.247578	0.635624	0.783521
492	H	0.273589	0.67642	0.763143
493	C	0.491131	0.247	0.339903
494	C	0.471662	0.263127	0.007228
495	C	0.436527	0.24592	0.005356
496	C	0.419397	0.210838	0.337501
497	C	0.436843	0.193183	0.337147
498	C	0.471988	0.211396	0.338452
499	O	0.38546	0.193745	0.337437
500	H	0.483248	0.197456	0.337369
501	H	0.378832	0.189753	0.036023
502	H	0.482649	0.288291	0.008779
503	C	0.304305	0.21147	0.337364
504	C	0.321993	0.246569	0.337026
505	C	0.303813	0.26353	0.338435
506	O	0.32137	0.194595	0.337381
507	H	0.317779	0.288731	0.33744
508	H	0.325399	0.192037	0.035979
509	C	0.303695	0.043589	0.006983
510	C	0.321638	0.078726	0.005258
511	C	0.303708	0.095877	0.337507
512	O	0.320578	0.129816	0.337521
513	H	0.323101	0.136404	0.036115
514	H	0.317869	0.032589	0.008237
515	C	0.357104	0.263214	0.335223
516	N	0.372829	0.264291	0.041214
517	C	0.402638	0.265379	0.044975
518	C	0.417726	0.262292	0.004941
519	N	0.40074	0.258599	0.299252
520	C	0.372657	0.260568	0.295715
521	H	0.360475	0.254794	0.265448
522	C	0.414994	0.264723	0.090753
523	H	0.399727	0.2673	0.116676
524	H	0.440435	0.285224	0.094404
525	H	0.414576	0.24131	0.096419
526	C	0.418418	0.158064	0.335174
527	N	0.40368	0.142418	0.041154
528	C	0.374903	0.11265	0.04478
529	C	0.3568	0.097549	0.004644
530	N	0.370309	0.114534	0.299028
531	C	0.400407	0.142565	0.295562
532	H	0.40693	0.154764	0.265312
533	C	0.361829	0.100238	0.090527
534	H	0.379644	0.115469	0.116501
535	H	0.356879	0.074791	0.094135
536	H	0.338836	0.100659	0.09617
537	C	0.491131	0.247	0.673237
538	C	0.471662	0.263127	0.340561
539	C	0.436527	0.24592	0.338688
540	C	0.419397	0.210838	0.670835
541	C	0.436843	0.193183	0.67048
542	C	0.471988	0.211396	0.671786
543	O	0.38546	0.193745	0.67077
544	H	0.483248	0.197456	0.670703
545	H	0.378832	0.189753	0.369354
546	H	0.482649	0.288291	0.342113
547	C	0.304305	0.21147	0.670696
548	C	0.321993	0.246569	0.670359
549	C	0.303813	0.26353	0.671766
550	O	0.32137	0.194595	0.670713
551	H	0.317779	0.288731	0.670774
552	H	0.325399	0.192037	0.369314
553	C	0.303695	0.043589	0.340315
554	C	0.321638	0.078726	0.338594
555	C	0.303708	0.095877	0.670838
556	O	0.320578	0.129816	0.670851
557	H	0.323101	0.136404	0.369449
558	H	0.317869	0.032589	0.34157
559	C	0.357104	0.263214	0.668557
560	N	0.372829	0.264291	0.374547
561	C	0.402638	0.265379	0.378309
562	C	0.417726	0.262292	0.338277
563	N	0.40074	0.258599	0.632584
564	C	0.372657	0.260568	0.629048
565	H	0.360475	0.254794	0.59878
566	C	0.414994	0.264723	0.424087
567	H	0.399727	0.2673	0.450009
568	H	0.440435	0.285224	0.427737
569	H	0.414576	0.24131	0.429752
570	C	0.418418	0.158064	0.668507
571	N	0.40368	0.142418	0.374486
572	C	0.374903	0.11265	0.378113
573	C	0.3568	0.097549	0.337976
574	N	0.370309	0.114534	0.632361
575	C	0.400407	0.142565	0.628896
576	H	0.40693	0.154764	0.598645
577	C	0.361829	0.100238	0.423861
578	H	0.379644	0.115469	0.449833
579	H	0.356879	0.074791	0.427467
580	H	0.338836	0.100659	0.429502
581	C	0.491131	0.247	0.00657
582	C	0.471662	0.263127	0.673895
583	C	0.436527	0.24592	0.672022
584	C	0.419397	0.210838	0.004168
585	C	0.436843	0.193183	0.003814
586	C	0.471988	0.211396	0.005116
587	O	0.38546	0.193745	0.004104
588	H	0.483248	0.197456	0.004033
589	H	0.378832	0.189753	0.702688
590	H	0.482649	0.288291	0.675443
591	C	0.304305	0.21147	0.00403
592	C	0.321993	0.246569	0.003693
593	C	0.303813	0.26353	0.0051
594	O	0.32137	0.194595	0.004047
595	H	0.317779	0.288731	0.004108
596	H	0.325399	0.192037	0.702644
597	C	0.303695	0.043589	0.673648
598	C	0.321638	0.078726	0.671924
599	C	0.303708	0.095877	0.004172
600	O	0.320578	0.129816	0.004185
601	H	0.323101	0.136404	0.702779
602	H	0.317869	0.032589	0.674904
603	C	0.357104	0.263214	0.001888
604	N	0.372829	0.264291	0.707881
605	C	0.402638	0.265379	0.711639
606	C	0.417726	0.262292	0.671607
607	N	0.40074	0.258599	0.965918
608	C	0.372657	0.260568	0.962379
609	H	0.360475	0.254794	0.932114
610	C	0.414994	0.264723	0.757417
611	H	0.399727	0.2673	0.783343
612	H	0.440435	0.285224	0.761071
613	H	0.414576	0.24131	0.763085
614	C	0.418418	0.158064	0.00184
615	N	0.40368	0.142418	0.70782
616	C	0.374903	0.11265	0.711444
617	C	0.3568	0.097549	0.67131
618	N	0.370309	0.114534	0.965695
619	C	0.400407	0.142565	0.962227
620	H	0.40693	0.154764	0.931979
621	C	0.361829	0.100238	0.757191
622	H	0.379644	0.115469	0.783167
623	H	0.356879	0.074791	0.760801
624	H	0.338836	0.100659	0.762836
625	C	0.491131	0.746999	0.339903
626	C	0.471662	0.763125	0.007228
627	C	0.436528	0.74592	0.005356
628	C	0.419398	0.710838	0.337501
629	C	0.436843	0.693183	0.337147
630	C	0.471988	0.711395	0.338452
631	O	0.385459	0.693744	0.337437
632	H	0.483247	0.697455	0.337369
633	H	0.378832	0.689753	0.036023
634	H	0.48265	0.788291	0.008779
635	C	0.304304	0.711469	0.337364
636	C	0.321993	0.746569	0.337026
637	C	0.303813	0.763531	0.338435
638	O	0.321369	0.694594	0.337381
639	H	0.317778	0.788729	0.33744
640	H	0.325397	0.692037	0.035979
641	C	0.303696	0.54359	0.006983
642	C	0.321637	0.578726	0.005258
643	C	0.303708	0.595877	0.337507
644	O	0.320578	0.629816	0.337521
645	H	0.323101	0.636404	0.036115
646	H	0.317869	0.532587	0.008237
647	C	0.357104	0.763215	0.335223
648	N	0.37283	0.764291	0.041214
649	C	0.402636	0.765377	0.044975
650	C	0.417724	0.76229	0.004941
651	N	0.40074	0.7586	0.299252
652	C	0.372658	0.760568	0.295715
653	H	0.360475	0.754795	0.265448
654	C	0.414994	0.764724	0.090753
655	H	0.399726	0.767298	0.116676
656	H	0.440435	0.785224	0.094404
657	H	0.414575	0.74131	0.096419
658	C	0.418419	0.658063	0.335174
659	N	0.40368	0.642419	0.041154
660	C	0.374903	0.61265	0.04478
661	C	0.356799	0.59755	0.004641
662	N	0.370308	0.614534	0.299028
663	C	0.400407	0.642565	0.295562
664	H	0.40693	0.654763	0.265312
665	C	0.36183	0.600239	0.090527
666	H	0.379643	0.615468	0.116501
667	H	0.356878	0.57479	0.094135
668	H	0.338835	0.600659	0.09617
669	C	0.491131	0.746999	0.673237
670	C	0.471662	0.763125	0.340561
671	C	0.436528	0.74592	0.338688
672	C	0.419398	0.710838	0.670835
673	C	0.436843	0.693183	0.67048
674	C	0.471988	0.711395	0.671786
675	O	0.385459	0.693744	0.67077
676	H	0.483247	0.697455	0.670703
677	H	0.378832	0.689753	0.369354
678	H	0.48265	0.788291	0.342113
679	C	0.304304	0.711469	0.670696
680	C	0.321993	0.746569	0.670359
681	C	0.303813	0.763531	0.671766
682	O	0.321369	0.694594	0.670713
683	H	0.317778	0.788729	0.670774
684	H	0.325397	0.692037	0.369314
685	C	0.303696	0.54359	0.340315
686	C	0.321637	0.578726	0.338594
687	C	0.303708	0.595877	0.670838
688	O	0.320578	0.629816	0.670851
689	H	0.323101	0.636404	0.369449
690	H	0.317869	0.532587	0.34157
691	C	0.357104	0.763215	0.668557
692	N	0.37283	0.764291	0.374547
693	C	0.402636	0.765377	0.378309
694	C	0.417724	0.76229	0.338277
695	N	0.40074	0.7586	0.632584
696	C	0.372658	0.760568	0.629048
697	H	0.360475	0.754795	0.59878
698	C	0.414994	0.764724	0.424087
699	H	0.399726	0.767298	0.450009
700	H	0.440435	0.785224	0.427737
701	H	0.414575	0.74131	0.429752
702	C	0.418419	0.658063	0.668507
703	N	0.40368	0.642419	0.374486
704	C	0.374903	0.61265	0.378113
705	C	0.356799	0.59755	0.337976
706	N	0.370308	0.614534	0.632361
707	C	0.400407	0.642565	0.628896
708	H	0.40693	0.654763	0.598645
709	C	0.36183	0.600239	0.423861
710	H	0.379643	0.615468	0.449833
711	H	0.356878	0.57479	0.427467
712	H	0.338835	0.600659	0.429502
713	C	0.491131	0.746999	0.00657
714	C	0.471662	0.763125	0.673895
715	C	0.436528	0.74592	0.672022
716	C	0.419398	0.710838	0.004168
717	C	0.436843	0.693183	0.003814
718	C	0.471988	0.711395	0.005116
719	O	0.385459	0.693744	0.004104
720	H	0.483247	0.697455	0.004033
721	H	0.378832	0.689753	0.702688
722	H	0.48265	0.788291	0.675443
723	C	0.304304	0.711469	0.00403
724	C	0.321993	0.746569	0.003693
725	C	0.303813	0.763531	0.0051
726	O	0.321369	0.694594	0.004047
727	H	0.317778	0.788729	0.004108
728	H	0.325397	0.692037	0.702644
729	C	0.303696	0.54359	0.673648
730	C	0.321637	0.578726	0.671924
731	C	0.303708	0.595877	0.004172
732	O	0.320578	0.629816	0.004185
733	H	0.323101	0.636404	0.702779
734	H	0.317869	0.532587	0.674904
735	C	0.357104	0.763215	0.001888
736	N	0.37283	0.764291	0.707881
737	C	0.402636	0.765377	0.711639
738	C	0.417724	0.76229	0.671607
739	N	0.40074	0.7586	0.965918
740	C	0.372658	0.760568	0.962379
741	H	0.360475	0.754795	0.932114
742	C	0.414994	0.764724	0.757417
743	H	0.399726	0.767298	0.783343
744	H	0.440435	0.785224	0.761071
745	H	0.414575	0.74131	0.763085
746	C	0.418419	0.658063	0.00184
747	N	0.40368	0.642419	0.70782
748	C	0.374903	0.61265	0.711444
749	C	0.356799	0.59755	0.67131
750	N	0.370308	0.614534	0.965695
751	C	0.400407	0.642565	0.962227
752	H	0.40693	0.654763	0.931979
753	C	0.36183	0.600239	0.757191
754	H	0.379643	0.615468	0.783167
755	H	0.356878	0.57479	0.760801
756	H	0.338835	0.600659	0.762836
757	C	0.527209	0.26521	0.339886
758	C	0.546343	0.300814	0.338445
759	C	0.581482	0.319036	0.337051
760	C	0.598938	0.301393	0.337287
761	C	0.58182	0.266314	0.005251
762	C	0.546686	0.249091	0.007176
763	H	0.535081	0.314754	0.337457
764	O	0.632876	0.318502	0.337116
765	C	0.991131	0.247	0.339903
766	C	0.971665	0.263127	0.007228
767	C	0.93653	0.24592	0.005356
768	C	0.919397	0.210838	0.337501
769	C	0.936843	0.193183	0.337147
770	C	0.971988	0.211396	0.338452
771	O	0.88546	0.193745	0.337437
772	H	0.983248	0.197456	0.337369
773	H	0.639553	0.322518	0.035682
774	H	0.878832	0.189753	0.036023
775	H	0.535704	0.223924	0.008716
776	H	0.982649	0.288291	0.008779
777	C	0.750025	0.264989	0.33994
778	C	0.714422	0.248559	0.338489
779	C	0.696234	0.265516	0.337226
780	C	0.713919	0.300615	0.337639
781	C	0.749003	0.318534	0.005454
782	C	0.766184	0.300583	0.007299
783	H	0.700459	0.223362	0.337375
784	O	0.696846	0.317483	0.337676
785	C	0.768209	0.2471	0.339903
786	C	0.75205	0.211506	0.007235
787	C	0.769223	0.193551	0.005265
788	C	0.804304	0.21147	0.337364
789	C	0.821994	0.246569	0.337026
790	C	0.803814	0.26353	0.338435
791	O	0.82137	0.194595	0.337381
792	H	0.817779	0.288731	0.33744
793	H	0.692873	0.320087	0.036279
794	H	0.825399	0.192037	0.035979
795	H	0.791353	0.314739	0.008866
796	H	0.726885	0.197352	0.008864
797	C	0.750191	0.488066	0.339886
798	C	0.766628	0.468897	0.338671
799	C	0.749678	0.433758	0.337176
800	C	0.714577	0.416334	0.337477
801	C	0.696649	0.433485	0.005245
802	C	0.714591	0.468622	0.006982
803	H	0.791831	0.480123	0.33798
804	O	0.697706	0.382395	0.337494
805	C	0.768095	0.024144	0.339889
806	C	0.803697	0.043589	0.006983
807	C	0.821638	0.078726	0.005258
808	C	0.803708	0.095877	0.337507
809	C	0.768608	0.078452	0.337202
810	C	0.751657	0.043314	0.338685
811	O	0.820578	0.129816	0.337521
812	H	0.726455	0.032086	0.337953
813	H	0.695213	0.375807	0.036087
814	H	0.823101	0.136404	0.036115
815	H	0.700418	0.479624	0.008239
816	H	0.817869	0.032589	0.008237
817	C	0.661099	0.248842	0.33535
818	N	0.645453	0.247885	0.041324
819	C	0.615679	0.246901	0.044833
820	C	0.600676	0.250008	0.004658
821	N	0.617716	0.253519	0.299077
822	C	0.64573	0.251419	0.295649
823	H	0.657981	0.257113	0.265435
824	C	0.603244	0.247583	0.090558
825	H	0.618416	0.244942	0.116569
826	H	0.577769	0.227132	0.094122
827	H	0.603728	0.271031	0.096188
828	C	0.766355	0.415303	0.335727
829	N	0.76753	0.400687	0.041631
830	C	0.768566	0.37193	0.045164
831	C	0.765386	0.353688	0.005127
832	N	0.761637	0.367128	0.299576
833	C	0.763586	0.397173	0.296102
834	H	0.757868	0.403605	0.265805
835	C	0.768071	0.358887	0.090874
836	H	0.770716	0.376704	0.116882
837	H	0.788596	0.353964	0.094318
838	H	0.744687	0.335881	0.096613
839	C	0.599886	0.354158	0.335113
840	N	0.614611	0.369785	0.041107
841	C	0.643376	0.399564	0.044749
842	C	0.661487	0.414666	0.004621
843	N	0.647978	0.397682	0.299008
844	C	0.61784	0.369696	0.295482
845	H	0.611494	0.357481	0.265246
846	C	0.656442	0.411963	0.090502
847	H	0.638623	0.396725	0.116469
848	H	0.661393	0.437409	0.094121
849	H	0.679434	0.41154	0.096146
850	C	0.857104	0.263214	0.335223
851	N	0.872831	0.264291	0.041214
852	C	0.902638	0.265379	0.044975
853	C	0.917726	0.262292	0.004941
854	N	0.90074	0.258599	0.299252
855	C	0.872657	0.260568	0.295715
856	H	0.860475	0.254794	0.265448
857	C	0.914994	0.264723	0.090753
858	H	0.899727	0.2673	0.116676
859	H	0.940435	0.285224	0.094404
860	H	0.914576	0.24131	0.096419
861	C	0.75193	0.096907	0.335726
862	N	0.750764	0.111556	0.041616
863	C	0.749679	0.14029	0.045136
864	C	0.752828	0.158377	0.004978
865	N	0.756568	0.145014	0.29938
866	C	0.754654	0.114979	0.296042
867	H	0.760337	0.108487	0.265765
868	C	0.750203	0.153402	0.090802
869	H	0.747579	0.135624	0.116856
870	H	0.729675	0.158324	0.094226
871	H	0.773591	0.176421	0.096478
872	C	0.918421	0.158064	0.335174
873	N	0.90368	0.142418	0.041154
874	C	0.874903	0.11265	0.04478
875	C	0.8568	0.097549	0.004644
876	N	0.870309	0.114534	0.299028
877	C	0.900407	0.142565	0.295562
878	H	0.906932	0.154764	0.265312
879	C	0.861831	0.100238	0.090527
880	H	0.879644	0.115469	0.116501
881	H	0.856879	0.074791	0.094135
882	H	0.838836	0.100659	0.09617
883	C	0.527209	0.26521	0.67322
884	C	0.546343	0.300814	0.671776
885	C	0.581482	0.319036	0.670382
886	C	0.598938	0.301393	0.670619
887	C	0.58182	0.266314	0.338584
888	C	0.546686	0.249091	0.340507
889	H	0.535081	0.314754	0.670787
890	O	0.632876	0.318502	0.67045
891	C	0.991131	0.247	0.673237
892	C	0.971665	0.263127	0.340561
893	C	0.93653	0.24592	0.338688
894	C	0.919397	0.210838	0.670835
895	C	0.936843	0.193183	0.67048
896	C	0.971988	0.211396	0.671786
897	O	0.88546	0.193745	0.67077
898	H	0.983248	0.197456	0.670703
899	H	0.639553	0.322518	0.369013
900	H	0.878832	0.189753	0.369354
901	H	0.535704	0.223924	0.342049
902	H	0.982649	0.288291	0.342113
903	C	0.750025	0.264989	0.673274
904	C	0.714422	0.248559	0.671823
905	C	0.696234	0.265516	0.670558
906	C	0.713919	0.300615	0.670973
907	C	0.749003	0.318534	0.33879
908	C	0.766184	0.300583	0.340632
909	H	0.700459	0.223362	0.670706
910	O	0.696846	0.317483	0.671007
911	C	0.768209	0.2471	0.673237
912	C	0.75205	0.211506	0.340568
913	C	0.769223	0.193551	0.338597
914	C	0.804304	0.21147	0.670696
915	C	0.821994	0.246569	0.670359
916	C	0.803814	0.26353	0.671766
917	O	0.82137	0.194595	0.670713
918	H	0.817779	0.288731	0.670774
919	H	0.692873	0.320087	0.369611
920	H	0.825399	0.192037	0.369314
921	H	0.791353	0.314739	0.342197
922	H	0.726885	0.197352	0.342197
923	C	0.750191	0.488066	0.673217
924	C	0.766628	0.468897	0.672005
925	C	0.749678	0.433758	0.670507
926	C	0.714577	0.416334	0.670811
927	C	0.696649	0.433485	0.338577
928	C	0.714591	0.468622	0.340315
929	H	0.791831	0.480123	0.671314
930	O	0.697706	0.382395	0.670828
931	C	0.768095	0.024144	0.673223
932	C	0.803697	0.043589	0.340315
933	C	0.821638	0.078726	0.338594
934	C	0.803708	0.095877	0.670838
935	C	0.768608	0.078452	0.670534
936	C	0.751657	0.043314	0.672015
937	O	0.820578	0.129816	0.670851
938	H	0.726455	0.032086	0.671287
939	H	0.695213	0.375807	0.369418
940	H	0.823101	0.136404	0.369449
941	H	0.700418	0.479624	0.341573
942	H	0.817869	0.032589	0.34157
943	C	0.661099	0.248842	0.668682
944	N	0.645453	0.247885	0.374658
945	C	0.615679	0.246901	0.378167
946	C	0.600676	0.250008	0.337993
947	N	0.617716	0.253519	0.632409
948	C	0.64573	0.251419	0.628981
949	H	0.657981	0.257113	0.598767
950	C	0.603244	0.247583	0.423891
951	H	0.618416	0.244942	0.449901
952	H	0.577769	0.227132	0.427454
953	H	0.603728	0.271031	0.429522
954	C	0.766355	0.415303	0.66906
955	N	0.76753	0.400687	0.374965
956	C	0.768566	0.37193	0.378498
957	C	0.765386	0.353688	0.338459
958	N	0.761637	0.367128	0.632908
959	C	0.763586	0.397173	0.629436
960	H	0.757868	0.403605	0.599138
961	C	0.768071	0.358887	0.424208
962	H	0.770716	0.376704	0.450215
963	H	0.788596	0.353964	0.42765
964	H	0.744687	0.335881	0.429947
965	C	0.599886	0.354158	0.668446
966	N	0.614611	0.369785	0.374439
967	C	0.643376	0.399564	0.378083
968	C	0.661487	0.414666	0.337956
969	N	0.647978	0.397682	0.632341
970	C	0.61784	0.369696	0.628815
971	H	0.611494	0.357481	0.598578
972	C	0.656442	0.411963	0.423834
973	H	0.638623	0.396725	0.449803
974	H	0.661393	0.437409	0.427454
975	H	0.679434	0.41154	0.429478
976	C	0.857104	0.263214	0.668557
977	N	0.872831	0.264291	0.374547
978	C	0.902638	0.265379	0.378309
979	C	0.917726	0.262292	0.338277
980	N	0.90074	0.258599	0.632584
981	C	0.872657	0.260568	0.629048
982	H	0.860475	0.254794	0.59878
983	C	0.914994	0.264723	0.424087
984	H	0.899727	0.2673	0.450009
985	H	0.940435	0.285224	0.427737
986	H	0.914576	0.24131	0.429752
987	C	0.75193	0.096907	0.66906
988	N	0.750764	0.111556	0.374948
989	C	0.749679	0.14029	0.378467
990	C	0.752828	0.158377	0.338314
991	N	0.756568	0.145014	0.632712
992	C	0.754654	0.114979	0.629375
993	H	0.760337	0.108487	0.599097
994	C	0.750203	0.153402	0.424134
995	H	0.747579	0.135624	0.450188
996	H	0.729675	0.158324	0.427558
997	H	0.773591	0.176421	0.429812
998	C	0.918421	0.158064	0.668507
999	N	0.90368	0.142418	0.374486
1000	C	0.874903	0.11265	0.378113
1001	C	0.8568	0.097549	0.337976
1002	N	0.870309	0.114534	0.632361
1003	C	0.900407	0.142565	0.628896
1004	H	0.906932	0.154764	0.598645
1005	C	0.861831	0.100238	0.423861
1006	H	0.879644	0.115469	0.449833
1007	H	0.856879	0.074791	0.427467
1008	H	0.838836	0.100659	0.429502
1009	C	0.527209	0.26521	0.006555
1010	C	0.546343	0.300814	0.00511
1011	C	0.581482	0.319036	0.003716
1012	C	0.598938	0.301393	0.003952
1013	C	0.58182	0.266314	0.671918
1014	C	0.546686	0.249091	0.673841
1015	H	0.535081	0.314754	0.004121
1016	O	0.632876	0.318502	0.00378
1017	C	0.991131	0.247	0.00657
1018	C	0.971665	0.263127	0.673895
1019	C	0.93653	0.24592	0.672022
1020	C	0.919397	0.210838	0.004168
1021	C	0.936843	0.193183	0.003814
1022	C	0.971988	0.211396	0.005116
1023	O	0.88546	0.193745	0.004104
1024	H	0.983248	0.197456	0.004033
1025	H	0.639553	0.322518	0.702347
1026	H	0.878832	0.189753	0.702688
1027	H	0.535704	0.223924	0.675383
1028	H	0.982649	0.288291	0.675443
1029	C	0.750025	0.264989	0.006608
1030	C	0.714422	0.248559	0.005157
1031	C	0.696234	0.265516	0.003892
1032	C	0.713919	0.300615	0.004307
1033	C	0.749003	0.318534	0.67212
1034	C	0.766184	0.300583	0.673966
1035	H	0.700459	0.223362	0.00404
1036	O	0.696846	0.317483	0.00434
1037	C	0.768209	0.2471	0.006572
1038	C	0.75205	0.211506	0.673901
1039	C	0.769223	0.193551	0.671931
1040	C	0.804304	0.21147	0.00403
1041	C	0.821994	0.246569	0.003693
1042	C	0.803814	0.26353	0.0051
1043	O	0.82137	0.194595	0.004047
1044	H	0.817779	0.288731	0.004108
1045	H	0.692873	0.320087	0.702945
1046	H	0.825399	0.192037	0.702644
1047	H	0.791353	0.314739	0.675531
1048	H	0.726885	0.197352	0.675531
1049	C	0.750191	0.488066	0.006552
1050	C	0.766628	0.468897	0.005336
1051	C	0.749678	0.433758	0.003841
1052	C	0.714577	0.416334	0.004145
1053	C	0.696649	0.433485	0.671911
1054	C	0.714591	0.468622	0.673648
1055	H	0.791831	0.480123	0.004644
1056	O	0.697706	0.382395	0.004158
1057	C	0.768095	0.024144	0.006556
1058	C	0.803697	0.043589	0.673648
1059	C	0.821638	0.078726	0.671924
1060	C	0.803708	0.095877	0.004172
1061	C	0.768608	0.078452	0.003868
1062	C	0.751657	0.043314	0.005349
1063	O	0.820578	0.129816	0.004185
1064	H	0.726455	0.032086	0.004621
1065	H	0.695213	0.375807	0.702752
1066	H	0.823101	0.136404	0.702779
1067	H	0.700418	0.479624	0.674904
1068	H	0.817869	0.032589	0.674904
1069	C	0.661099	0.248842	0.002016
1070	N	0.645453	0.247885	0.707989
1071	C	0.615679	0.246901	0.711498
1072	C	0.600676	0.250008	0.671327
1073	N	0.617716	0.253519	0.965742
1074	C	0.64573	0.251419	0.962314
1075	H	0.657981	0.257113	0.932101
1076	C	0.603244	0.247583	0.757225
1077	H	0.618416	0.244942	0.783235
1078	H	0.577769	0.227132	0.760788
1079	H	0.603728	0.271031	0.762853
1080	C	0.766355	0.415303	0.002394
1081	N	0.76753	0.400687	0.708296
1082	C	0.768566	0.37193	0.711828
1083	C	0.765386	0.353688	0.671793
1084	N	0.761637	0.367128	0.966242
1085	C	0.763586	0.397173	0.962767
1086	H	0.757868	0.403605	0.932472
1087	C	0.768071	0.358887	0.757539
1088	H	0.770716	0.376704	0.783548
1089	H	0.788596	0.353964	0.760983
1090	H	0.744687	0.335881	0.763278
1091	C	0.599886	0.354158	0.00178
1092	N	0.614611	0.369785	0.707773
1093	C	0.643376	0.399564	0.711413
1094	C	0.661487	0.414666	0.67129
1095	N	0.647978	0.397682	0.965675
1096	C	0.61784	0.369696	0.962149
1097	H	0.611494	0.357481	0.931912
1098	C	0.656442	0.411963	0.757167
1099	H	0.638623	0.396725	0.783133
1100	H	0.661393	0.437409	0.760788
1101	H	0.679434	0.41154	0.762812
1102	C	0.857104	0.263214	0.001888
1103	N	0.872831	0.264291	0.707881
1104	C	0.902638	0.265379	0.711639
1105	C	0.917726	0.262292	0.671607
1106	N	0.90074	0.258599	0.965918
1107	C	0.872657	0.260568	0.962379
1108	H	0.860475	0.254794	0.932114
1109	C	0.914994	0.264723	0.757417
1110	H	0.899727	0.2673	0.783343
1111	H	0.940435	0.285224	0.761071
1112	H	0.914576	0.24131	0.763085
1113	C	0.75193	0.096907	0.00239
1114	N	0.750764	0.111556	0.708282
1115	C	0.749679	0.14029	0.711801
1116	C	0.752828	0.158377	0.671644
1117	N	0.756568	0.145014	0.966046
1118	C	0.754654	0.114979	0.962709
1119	H	0.760337	0.108487	0.932431
1120	C	0.750203	0.153402	0.757468
1121	H	0.747579	0.135624	0.783521
1122	H	0.729675	0.158324	0.760892
1123	H	0.773591	0.176421	0.763143
1124	C	0.918421	0.158064	0.00184
1125	N	0.90368	0.142418	0.70782
1126	C	0.874903	0.11265	0.711444
1127	C	0.8568	0.097549	0.67131
1128	N	0.870309	0.114534	0.965695
1129	C	0.900407	0.142565	0.962227
1130	H	0.906932	0.154764	0.931979
1131	C	0.861831	0.100238	0.757191
1132	H	0.879644	0.115469	0.783167
1133	H	0.856879	0.074791	0.760801
1134	H	0.838836	0.100659	0.762836
1135	C	0.527207	0.765208	0.339886
1136	C	0.546341	0.800812	0.338445
1137	C	0.581482	0.819036	0.337051
1138	C	0.598937	0.801391	0.337287
1139	C	0.58182	0.766314	0.005251
1140	C	0.546686	0.749091	0.007176
1141	H	0.53508	0.814752	0.337457
1142	O	0.632876	0.818502	0.337116
1143	C	0.991131	0.746999	0.339903
1144	C	0.971663	0.763125	0.007228
1145	C	0.936528	0.74592	0.005356
1146	C	0.919398	0.710838	0.337501
1147	C	0.936844	0.693183	0.337147
1148	C	0.971989	0.711395	0.338452
1149	O	0.885459	0.693744	0.337437
1150	H	0.983247	0.697455	0.337369
1151	H	0.639551	0.822516	0.035682
1152	H	0.878831	0.689753	0.036023
1153	H	0.535703	0.723923	0.008716
1154	H	0.982651	0.788291	0.008779
1155	C	0.750025	0.764989	0.33994
1156	C	0.71442	0.748557	0.338489
1157	C	0.696233	0.765516	0.337226
1158	C	0.713918	0.800616	0.337639
1159	C	0.749002	0.818534	0.005454
1160	C	0.766184	0.800583	0.007299
1161	H	0.700458	0.723361	0.337375
1162	O	0.696846	0.817481	0.337676
1163	C	0.76821	0.7471	0.339903
1164	C	0.752049	0.711507	0.007235
1165	C	0.769223	0.69355	0.005265
1166	C	0.804305	0.711469	0.337364
1167	C	0.821993	0.746569	0.337026
1168	C	0.803813	0.763531	0.338435
1169	O	0.821368	0.694594	0.337381
1170	H	0.817779	0.788729	0.33744
1171	H	0.692871	0.820085	0.036279
1172	H	0.825397	0.692037	0.035979
1173	H	0.791352	0.814739	0.008866
1174	H	0.726884	0.697353	0.008864
1175	C	0.750192	0.988067	0.339886
1176	C	0.766628	0.968895	0.338671
1177	C	0.749677	0.933759	0.337176
1178	C	0.714578	0.916335	0.337477
1179	C	0.69665	0.933485	0.005245
1180	C	0.714591	0.968622	0.006982
1181	H	0.79183	0.980124	0.33798
1182	O	0.697704	0.882393	0.337494
1183	C	0.768095	0.524145	0.339889
1184	C	0.803696	0.54359	0.006983
1185	C	0.821637	0.578726	0.005258
1186	C	0.803709	0.595877	0.337507
1187	C	0.768607	0.578453	0.337202
1188	C	0.751658	0.543314	0.338685
1189	O	0.820579	0.629816	0.337521
1190	H	0.726455	0.532085	0.337953
1191	H	0.695212	0.875807	0.036087
1192	H	0.823101	0.636404	0.036115
1193	H	0.700416	0.979622	0.008239
1194	H	0.817869	0.532587	0.008237
1195	C	0.661099	0.74884	0.33535
1196	N	0.645452	0.747886	0.041324
1197	C	0.615678	0.746902	0.044833
1198	C	0.600676	0.750008	0.004658
1199	N	0.617716	0.753517	0.299077
1200	C	0.645731	0.751417	0.295649
1201	H	0.65798	0.757114	0.265435
1202	C	0.603242	0.747583	0.090558
1203	H	0.618414	0.744941	0.116569
1204	H	0.577769	0.727131	0.094122
1205	H	0.603729	0.771031	0.096188
1206	C	0.766355	0.915303	0.335727
1207	N	0.76753	0.900685	0.041631
1208	C	0.768567	0.87193	0.045164
1209	C	0.765384	0.853686	0.005127
1210	N	0.761636	0.867129	0.299576
1211	C	0.763586	0.897171	0.296102
1212	H	0.757869	0.903605	0.265805
1213	C	0.768073	0.858888	0.090874
1214	H	0.770717	0.876702	0.116882
1215	H	0.788598	0.853964	0.094318
1216	H	0.744685	0.835879	0.096613
1217	C	0.599886	0.854156	0.335113
1218	N	0.61461	0.869786	0.041107
1219	C	0.643374	0.899562	0.044749
1220	C	0.661488	0.914667	0.004621
1221	N	0.647978	0.897683	0.299008
1222	C	0.617841	0.869696	0.295482
1223	H	0.611494	0.857481	0.265246
1224	C	0.656441	0.911963	0.090502
1225	H	0.638623	0.896726	0.116469
1226	H	0.661393	0.93741	0.094121
1227	H	0.679434	0.911538	0.096146
1228	C	0.857103	0.763215	0.335223
1229	N	0.87283	0.764291	0.041214
1230	C	0.902636	0.765377	0.044975
1231	C	0.917724	0.76229	0.004941
1232	N	0.900741	0.7586	0.299252
1233	C	0.872658	0.760568	0.295715
1234	H	0.860476	0.754795	0.265448
1235	C	0.914995	0.764724	0.090753
1236	H	0.899727	0.767298	0.116676
1237	H	0.940436	0.785224	0.094404
1238	H	0.914575	0.74131	0.096419
1239	C	0.751931	0.596906	0.335725
1240	N	0.750763	0.611557	0.041616
1241	C	0.749678	0.640289	0.045136
1242	C	0.752829	0.658377	0.004978
1243	N	0.756566	0.645013	0.29938
1244	C	0.754655	0.614979	0.296042
1245	H	0.760337	0.608487	0.265765
1246	C	0.750201	0.653401	0.090802
1247	H	0.747578	0.635624	0.116856
1248	H	0.729676	0.658324	0.094226
1249	H	0.773589	0.67642	0.096478
1250	C	0.918419	0.658063	0.335174
1251	N	0.903679	0.642419	0.041154
1252	C	0.874904	0.61265	0.04478
1253	C	0.856801	0.59755	0.004641
1254	N	0.870308	0.614534	0.299028
1255	C	0.900408	0.642565	0.295562
1256	H	0.906931	0.654763	0.265312
1257	C	0.86183	0.600239	0.090527
1258	H	0.879643	0.615468	0.116501
1259	H	0.856878	0.57479	0.094135
1260	H	0.838836	0.600659	0.09617
1261	C	0.527207	0.765208	0.67322
1262	C	0.546341	0.800812	0.671776
1263	C	0.581482	0.819036	0.670382
1264	C	0.598937	0.801391	0.670619
1265	C	0.58182	0.766314	0.338584
1266	C	0.546686	0.749091	0.340507
1267	H	0.53508	0.814752	0.670787
1268	O	0.632876	0.818502	0.67045
1269	C	0.991131	0.746999	0.673237
1270	C	0.971663	0.763125	0.340561
1271	C	0.936528	0.74592	0.338688
1272	C	0.919398	0.710838	0.670835
1273	C	0.936844	0.693183	0.67048
1274	C	0.971989	0.711395	0.671786
1275	O	0.885459	0.693744	0.67077
1276	H	0.983247	0.697455	0.670703
1277	H	0.639551	0.822516	0.369013
1278	H	0.878831	0.689753	0.369354
1279	H	0.535703	0.723923	0.342049
1280	H	0.982651	0.788291	0.342113
1281	C	0.750025	0.764989	0.673274
1282	C	0.71442	0.748557	0.671823
1283	C	0.696233	0.765516	0.670558
1284	C	0.713918	0.800616	0.670973
1285	C	0.749002	0.818534	0.33879
1286	C	0.766184	0.800583	0.340632
1287	H	0.700458	0.723361	0.670706
1288	O	0.696846	0.817481	0.671007
1289	C	0.76821	0.7471	0.673237
1290	C	0.752049	0.711507	0.340568
1291	C	0.769223	0.69355	0.338597
1292	C	0.804305	0.711469	0.670696
1293	C	0.821993	0.746569	0.670359
1294	C	0.803813	0.763531	0.671766
1295	O	0.821368	0.694594	0.670713
1296	H	0.817779	0.788729	0.670774
1297	H	0.692871	0.820085	0.369611
1298	H	0.825397	0.692037	0.369314
1299	H	0.791352	0.814739	0.342197
1300	H	0.726884	0.697353	0.342197
1301	C	0.750192	0.988067	0.673217
1302	C	0.766628	0.968895	0.672005
1303	C	0.749677	0.933759	0.670507
1304	C	0.714578	0.916335	0.670811
1305	C	0.69665	0.933485	0.338577
1306	C	0.714591	0.968622	0.340315
1307	H	0.79183	0.980124	0.671314
1308	O	0.697704	0.882393	0.670828
1309	C	0.768095	0.524145	0.673223
1310	C	0.803696	0.54359	0.340315
1311	C	0.821637	0.578726	0.338594
1312	C	0.803709	0.595877	0.670838
1313	C	0.768607	0.578453	0.670534
1314	C	0.751658	0.543314	0.672015
1315	O	0.820579	0.629816	0.670851
1316	H	0.726455	0.532085	0.671287
1317	H	0.695212	0.875807	0.369418
1318	H	0.823101	0.636404	0.369449
1319	H	0.700416	0.979622	0.341573
1320	H	0.817869	0.532587	0.34157
1321	C	0.661099	0.74884	0.668682
1322	N	0.645452	0.747886	0.374658
1323	C	0.615678	0.746902	0.378167
1324	C	0.600676	0.750008	0.337993
1325	N	0.617716	0.753517	0.632409
1326	C	0.645731	0.751417	0.628981
1327	H	0.65798	0.757114	0.598767
1328	C	0.603242	0.747583	0.423891
1329	H	0.618414	0.744941	0.449901
1330	H	0.577769	0.727131	0.427454
1331	H	0.603729	0.771031	0.429522
1332	C	0.766355	0.915303	0.66906
1333	N	0.76753	0.900685	0.374965
1334	C	0.768567	0.87193	0.378498
1335	C	0.765384	0.853686	0.338459
1336	N	0.761636	0.867129	0.632908
1337	C	0.763586	0.897171	0.629436
1338	H	0.757869	0.903605	0.599138
1339	C	0.768073	0.858888	0.424208
1340	H	0.770717	0.876702	0.450215
1341	H	0.788598	0.853964	0.42765
1342	H	0.744685	0.835879	0.429947
1343	C	0.599886	0.854156	0.668446
1344	N	0.61461	0.869786	0.374439
1345	C	0.643374	0.899562	0.378083
1346	C	0.661488	0.914667	0.337956
1347	N	0.647978	0.897683	0.632341
1348	C	0.617841	0.869696	0.628815
1349	H	0.611494	0.857481	0.598578
1350	C	0.656441	0.911963	0.423834
1351	H	0.638623	0.896726	0.449803
1352	H	0.661393	0.93741	0.427454
1353	H	0.679434	0.911538	0.429478
1354	C	0.857103	0.763215	0.668557
1355	N	0.87283	0.764291	0.374547
1356	C	0.902636	0.765377	0.378309
1357	C	0.917724	0.76229	0.338277
1358	N	0.900741	0.7586	0.632584
1359	C	0.872658	0.760568	0.629048
1360	H	0.860476	0.754795	0.59878
1361	C	0.914995	0.764724	0.424087
1362	H	0.899727	0.767298	0.450009
1363	H	0.940436	0.785224	0.427737
1364	H	0.914575	0.74131	0.429752
1365	C	0.751931	0.596906	0.66906
1366	N	0.750763	0.611557	0.374948
1367	C	0.749678	0.640289	0.378467
1368	C	0.752829	0.658377	0.338314
1369	N	0.756566	0.645013	0.632712
1370	C	0.754655	0.614979	0.629375
1371	H	0.760337	0.608487	0.599097
1372	C	0.750201	0.653401	0.424134
1373	H	0.747578	0.635624	0.450188
1374	H	0.729676	0.658324	0.427558
1375	H	0.773589	0.67642	0.429812
1376	C	0.918419	0.658063	0.668507
1377	N	0.903679	0.642419	0.374486
1378	C	0.874904	0.61265	0.378113
1379	C	0.856801	0.59755	0.337976
1380	N	0.870308	0.614534	0.632361
1381	C	0.900408	0.642565	0.628896
1382	H	0.906931	0.654763	0.598645
1383	C	0.86183	0.600239	0.423861
1384	H	0.879643	0.615468	0.449833
1385	H	0.856878	0.57479	0.427467
1386	H	0.838836	0.600659	0.429502
1387	C	0.527207	0.765208	0.006555
1388	C	0.546341	0.800812	0.00511
1389	C	0.581482	0.819036	0.003716
1390	C	0.598937	0.801391	0.003952
1391	C	0.58182	0.766314	0.671918
1392	C	0.546686	0.749091	0.673841
1393	H	0.53508	0.814752	0.004121
1394	O	0.632876	0.818502	0.00378
1395	C	0.991131	0.746999	0.00657
1396	C	0.971663	0.763125	0.673895
1397	C	0.936528	0.74592	0.672022
1398	C	0.919398	0.710838	0.004168
1399	C	0.936844	0.693183	0.003814
1400	C	0.971989	0.711395	0.005116
1401	O	0.885459	0.693744	0.004104
1402	H	0.983247	0.697455	0.004033
1403	H	0.639551	0.822516	0.702347
1404	H	0.878831	0.689753	0.702688
1405	H	0.535703	0.723923	0.675383
1406	H	0.982651	0.788291	0.675443
1407	C	0.750025	0.764989	0.006608
1408	C	0.71442	0.748557	0.005157
1409	C	0.696233	0.765516	0.003892
1410	C	0.713918	0.800616	0.004307
1411	C	0.749002	0.818534	0.67212
1412	C	0.766184	0.800583	0.673966
1413	H	0.700458	0.723361	0.00404
1414	O	0.696846	0.817481	0.00434
1415	C	0.76821	0.7471	0.006572
1416	C	0.752049	0.711507	0.673901
1417	C	0.769223	0.69355	0.671931
1418	C	0.804305	0.711469	0.00403
1419	C	0.821993	0.746569	0.003693
1420	C	0.803813	0.763531	0.0051
1421	O	0.821368	0.694594	0.004047
1422	H	0.817779	0.788729	0.004108
1423	H	0.692871	0.820085	0.702945
1424	H	0.825397	0.692037	0.702644
1425	H	0.791352	0.814739	0.675531
1426	H	0.726884	0.697353	0.675531
1427	C	0.750192	0.988067	0.006552
1428	C	0.766628	0.968895	0.005336
1429	C	0.749677	0.933759	0.003841
1430	C	0.714578	0.916335	0.004145
1431	C	0.69665	0.933485	0.671911
1432	C	0.714591	0.968622	0.673648
1433	H	0.79183	0.980124	0.004644
1434	O	0.697704	0.882393	0.004158
1435	C	0.768095	0.524145	0.006556
1436	C	0.803696	0.54359	0.673648
1437	C	0.821637	0.578726	0.671924
1438	C	0.803709	0.595877	0.004172
1439	C	0.768607	0.578453	0.003868
1440	C	0.751658	0.543314	0.005349
1441	O	0.820579	0.629816	0.004185
1442	H	0.726455	0.532085	0.004621
1443	H	0.695212	0.875807	0.702752
1444	H	0.823101	0.636404	0.702779
1445	H	0.700416	0.979622	0.674904
1446	H	0.817869	0.532587	0.674904
1447	C	0.661099	0.74884	0.002016
1448	N	0.645452	0.747886	0.707989
1449	C	0.615678	0.746902	0.711498
1450	C	0.600676	0.750008	0.671327
1451	N	0.617716	0.753517	0.965742
1452	C	0.645731	0.751417	0.962314
1453	H	0.65798	0.757114	0.932101
1454	C	0.603242	0.747583	0.757225
1455	H	0.618414	0.744941	0.783235
1456	H	0.577769	0.727131	0.760788
1457	H	0.603729	0.771031	0.762853
1458	C	0.766355	0.915303	0.002394
1459	N	0.76753	0.900685	0.708296
1460	C	0.768567	0.87193	0.711828
1461	C	0.765384	0.853686	0.671793
1462	N	0.761636	0.867129	0.966242
1463	C	0.763586	0.897171	0.962767
1464	H	0.757869	0.903605	0.932472
1465	C	0.768073	0.858888	0.757539
1466	H	0.770717	0.876702	0.783548
1467	H	0.788598	0.853964	0.760983
1468	H	0.744685	0.835879	0.763278
1469	C	0.599886	0.854156	0.00178
1470	N	0.61461	0.869786	0.707773
1471	C	0.643374	0.899562	0.711413
1472	C	0.661488	0.914667	0.67129
1473	N	0.647978	0.897683	0.965675
1474	C	0.617841	0.869696	0.962149
1475	H	0.611494	0.857481	0.931912
1476	C	0.656441	0.911963	0.757167
1477	H	0.638623	0.896726	0.783133
1478	H	0.661393	0.93741	0.760788
1479	H	0.679434	0.911538	0.762812
1480	C	0.857103	0.763215	0.001888
1481	N	0.87283	0.764291	0.707881
1482	C	0.902636	0.765377	0.711639
1483	C	0.917724	0.76229	0.671607
1484	N	0.900741	0.7586	0.965918
1485	C	0.872658	0.760568	0.962379
1486	H	0.860476	0.754795	0.932114
1487	C	0.914995	0.764724	0.757417
1488	H	0.899727	0.767298	0.783343
1489	H	0.940436	0.785224	0.761071
1490	H	0.914575	0.74131	0.763085
1491	C	0.751931	0.596906	0.00239
1492	N	0.750763	0.611557	0.708282
1493	C	0.749678	0.640289	0.711801
1494	C	0.752829	0.658377	0.671644
1495	N	0.756566	0.645013	0.966046
1496	C	0.754655	0.614979	0.962709
1497	H	0.760337	0.608487	0.932431
1498	C	0.750201	0.653401	0.757468
1499	H	0.747578	0.635624	0.783521
1500	H	0.729676	0.658324	0.760892
1501	H	0.773589	0.67642	0.763143
1502	C	0.918419	0.658063	0.00184
1503	N	0.903679	0.642419	0.70782
1504	C	0.874904	0.61265	0.711444
1505	C	0.856801	0.59755	0.67131
1506	N	0.870308	0.614534	0.965695
1507	C	0.900408	0.642565	0.962227
1508	H	0.906931	0.654763	0.931979
1509	C	0.86183	0.600239	0.757191
1510	H	0.879643	0.615468	0.783167
1511	H	0.856878	0.57479	0.760801
1512	H	0.838836	0.600659	0.762836
