data_C792H288N216O72_2018-02-15_10:35:33
#******************************************
#
# CIF file created by Zeo++
# Zeo++ is an open source package to
# analyze microporous materials
#
#*******************************************

_cell_length_a		46.48   
_cell_length_b		46.48   
_cell_length_c		29.647   
_cell_angle_alpha		90   
_cell_angle_beta		90   
_cell_angle_gamma		120   

_symmetry_space_group_name_H-M		'P1'
_symmetry_Int_Tables_number		1
_symmetry_cell_setting		Monoclinic

loop_
_symmetry_equiv_pos_as_xyz
'+x,+y,+z'

loop_
_atom_site_label
_atom_site_type_symbol
_atom_site_fract_x
_atom_site_fract_y
_atom_site_fract_z
1	C	0.026986	0.264945	0.339644
2	C	0.046416	0.30053	0.340106
3	C	0.081547	0.318466	0.338659
4	C	0.098721	0.300572	0.338052
5	C	0.081301	0.265489	0.004187
6	C	0.046166	0.248531	0.005203
7	H	0.035411	0.31469	0.341286
8	O	0.132645	0.31744	0.338345
9	H	0.034951	0.223342	0.00439
10	C	0.117479	0.250983	0.296519
11	C	0.09975	0.248819	0.003003
12	N	0.114657	0.248119	0.042221
13	H	0.110905	0.256511	0.2662
14	C	0.100372	0.353656	0.00524
15	N	0.117227	0.367439	0.299616
16	C	0.115726	0.37167	0.045311
17	C	0.105937	0.359733	0.085684
18	N	0.097367	0.348974	0.121206
19	C	0.026986	0.264945	0.672976
20	C	0.046416	0.30053	0.673438
21	C	0.081547	0.318466	0.671991
22	C	0.098721	0.300572	0.671384
23	C	0.081301	0.265489	0.337519
24	C	0.046166	0.248531	0.338537
25	H	0.035411	0.31469	0.674619
26	O	0.132645	0.31744	0.671678
27	H	0.034951	0.223342	0.337724
28	C	0.117479	0.250983	0.629852
29	C	0.09975	0.248819	0.336336
30	N	0.114657	0.248119	0.375553
31	H	0.110905	0.256511	0.599532
32	C	0.100372	0.353656	0.338574
33	N	0.117227	0.367439	0.632949
34	C	0.115726	0.37167	0.378643
35	C	0.105937	0.359733	0.419018
36	N	0.097367	0.348974	0.454539
37	C	0.026986	0.264945	0.006311
38	C	0.046416	0.30053	0.006772
39	C	0.081547	0.318466	0.005324
40	C	0.098721	0.300572	0.004717
41	C	0.081301	0.265489	0.670851
42	C	0.046166	0.248531	0.67187
43	H	0.035411	0.31469	0.007953
44	O	0.132645	0.31744	0.00501
45	H	0.034951	0.223342	0.671057
46	C	0.117479	0.250983	0.963185
47	C	0.09975	0.248819	0.669671
48	N	0.114657	0.248119	0.708886
49	H	0.110905	0.256511	0.932865
50	C	0.100372	0.353656	0.671907
51	N	0.117227	0.367439	0.966281
52	C	0.115726	0.37167	0.711975
53	C	0.105937	0.359733	0.75235
54	N	0.097367	0.348974	0.787872
55	C	0.026986	0.764944	0.339644
56	C	0.046415	0.800529	0.340106
57	C	0.081545	0.818465	0.338659
58	C	0.098719	0.800571	0.338052
59	C	0.081301	0.76549	0.004187
60	C	0.046165	0.74853	0.005203
61	H	0.035412	0.814692	0.341286
62	O	0.132645	0.817442	0.338345
63	H	0.034952	0.723342	0.00439
64	C	0.11748	0.750984	0.296519
65	C	0.099749	0.748818	0.003003
66	N	0.114658	0.74812	0.042221
67	H	0.110907	0.756512	0.2662
68	C	0.100371	0.853655	0.00524
69	N	0.117226	0.867438	0.299616
70	C	0.115726	0.871671	0.045311
71	C	0.105937	0.859732	0.085684
72	N	0.097367	0.848972	0.121206
73	C	0.026986	0.764944	0.672976
74	C	0.046415	0.800529	0.673438
75	C	0.081545	0.818465	0.671991
76	C	0.098719	0.800571	0.671384
77	C	0.081301	0.76549	0.337519
78	C	0.046165	0.74853	0.338537
79	H	0.035412	0.814692	0.674619
80	O	0.132645	0.817442	0.671678
81	H	0.034952	0.723342	0.337724
82	C	0.11748	0.750984	0.629852
83	C	0.099749	0.748818	0.336336
84	N	0.114658	0.74812	0.375553
85	H	0.110907	0.756512	0.599532
86	C	0.100371	0.853655	0.338574
87	N	0.117226	0.867438	0.632949
88	C	0.115726	0.871671	0.378643
89	C	0.105937	0.859732	0.419018
90	N	0.097367	0.848972	0.454539
91	C	0.026986	0.764944	0.006311
92	C	0.046415	0.800529	0.006772
93	C	0.081545	0.818465	0.005324
94	C	0.098719	0.800571	0.004717
95	C	0.081301	0.76549	0.670851
96	C	0.046165	0.74853	0.67187
97	H	0.035412	0.814692	0.007953
98	O	0.132645	0.817442	0.00501
99	H	0.034952	0.723342	0.671057
100	C	0.11748	0.750984	0.963185
101	C	0.099749	0.748818	0.669671
102	N	0.114658	0.74812	0.708886
103	H	0.110907	0.756512	0.932865
104	C	0.100371	0.853655	0.671907
105	N	0.117226	0.867438	0.966281
106	C	0.115726	0.871671	0.711975
107	C	0.105937	0.859732	0.75235
108	N	0.097367	0.848972	0.787872
109	H	0.139089	0.320086	0.036999
110	C	0.214354	0.248849	0.340197
111	C	0.196386	0.266006	0.33846
112	C	0.214262	0.301076	0.337637
113	H	0.200218	0.223689	0.341718
114	O	0.197379	0.318119	0.337873
115	H	0.19466	0.321872	0.03652
116	C	0.21374	0.416194	0.338261
117	C	0.196076	0.433613	0.004248
118	C	0.214253	0.468754	0.00499
119	O	0.196686	0.382271	0.338595
120	H	0.192959	0.375841	0.037256
121	H	0.200291	0.479978	0.003928
122	C	0.161184	0.24957	0.005341
123	N	0.147549	0.252938	0.299758
124	C	0.143152	0.246713	0.045408
125	C	0.155107	0.248747	0.085735
126	N	0.165877	0.250839	0.121227
127	C	0.145331	0.397507	0.296319
128	C	0.160953	0.41517	0.002754
129	N	0.145573	0.400227	0.042078
130	H	0.157338	0.404306	0.265944
131	H	0.139089	0.320086	0.370331
132	C	0.214354	0.248849	0.673529
133	C	0.196386	0.266006	0.671792
134	C	0.214262	0.301076	0.670969
135	H	0.200218	0.223689	0.675051
136	O	0.197379	0.318119	0.671205
137	H	0.19466	0.321872	0.369852
138	C	0.21374	0.416194	0.671593
139	C	0.196076	0.433613	0.337583
140	C	0.214253	0.468754	0.338325
141	O	0.196686	0.382271	0.671927
142	H	0.192959	0.375841	0.370588
143	H	0.200291	0.479978	0.337261
144	C	0.161184	0.24957	0.338676
145	N	0.147549	0.252938	0.63309
146	C	0.143152	0.246713	0.37874
147	C	0.155107	0.248747	0.419068
148	N	0.165877	0.250839	0.454559
149	C	0.145331	0.397507	0.629653
150	C	0.160953	0.41517	0.336089
151	N	0.145573	0.400227	0.375411
152	H	0.157338	0.404306	0.599279
153	H	0.139089	0.320086	0.703664
154	C	0.214354	0.248849	0.006865
155	C	0.196386	0.266006	0.005125
156	C	0.214262	0.301076	0.004302
157	H	0.200218	0.223689	0.008386
158	O	0.197379	0.318119	0.004538
159	H	0.19466	0.321872	0.703185
160	C	0.21374	0.416194	0.004926
161	C	0.196076	0.433613	0.670915
162	C	0.214253	0.468754	0.671657
163	O	0.196686	0.382271	0.00526
164	H	0.192959	0.375841	0.70392
165	H	0.200291	0.479978	0.670595
166	C	0.161184	0.24957	0.672008
167	N	0.147549	0.252938	0.966423
168	C	0.143152	0.246713	0.712073
169	C	0.155107	0.248747	0.752401
170	N	0.165877	0.250839	0.787892
171	C	0.145331	0.397507	0.962986
172	C	0.160953	0.41517	0.669421
173	N	0.145573	0.400227	0.708744
174	H	0.157338	0.404306	0.932612
175	H	0.139091	0.820087	0.036999
176	C	0.214353	0.748848	0.340197
177	C	0.196387	0.766007	0.33846
178	C	0.214262	0.801078	0.337637
179	H	0.200218	0.723689	0.341718
180	O	0.197378	0.818117	0.337873
181	H	0.19466	0.821871	0.03652
182	C	0.213739	0.916192	0.338261
183	C	0.196075	0.933612	0.004248
184	C	0.214253	0.968755	0.00499
185	O	0.196685	0.882269	0.338595
186	H	0.192959	0.87584	0.037256
187	H	0.200289	0.979977	0.003928
188	C	0.161184	0.749571	0.005341
189	N	0.147549	0.752937	0.299758
190	C	0.143153	0.746714	0.045408
191	C	0.155108	0.748749	0.085735
192	N	0.165876	0.750838	0.121227
193	C	0.14533	0.897505	0.296319
194	C	0.160953	0.915171	0.002754
195	N	0.145571	0.900226	0.042078
196	H	0.157338	0.904305	0.265944
197	H	0.139091	0.820087	0.370331
198	C	0.214353	0.748848	0.673529
199	C	0.196387	0.766007	0.671792
200	C	0.214262	0.801078	0.670969
201	H	0.200218	0.723689	0.675051
202	O	0.197378	0.818117	0.671205
203	H	0.19466	0.821871	0.369852
204	C	0.213739	0.916192	0.671593
205	C	0.196075	0.933612	0.337583
206	C	0.214253	0.968755	0.338325
207	O	0.196685	0.882269	0.671927
208	H	0.192959	0.87584	0.370588
209	H	0.200289	0.979977	0.337261
210	C	0.161184	0.749571	0.338676
211	N	0.147549	0.752937	0.63309
212	C	0.143153	0.746714	0.37874
213	C	0.155108	0.748749	0.419068
214	N	0.165876	0.750838	0.454559
215	C	0.14533	0.897505	0.629653
216	C	0.160953	0.915171	0.336089
217	N	0.145571	0.900226	0.375411
218	H	0.157338	0.904305	0.599279
219	H	0.139091	0.820087	0.703664
220	C	0.214353	0.748848	0.006865
221	C	0.196387	0.766007	0.005125
222	C	0.214262	0.801078	0.004302
223	H	0.200218	0.723689	0.008386
224	O	0.197378	0.818117	0.004538
225	H	0.19466	0.821871	0.703185
226	C	0.213739	0.916192	0.004926
227	C	0.196075	0.933612	0.670915
228	C	0.214253	0.968755	0.671657
229	O	0.196685	0.882269	0.00526
230	H	0.192959	0.87584	0.70392
231	H	0.200289	0.979977	0.670595
232	C	0.161184	0.749571	0.672008
233	N	0.147549	0.752937	0.966423
234	C	0.143153	0.746714	0.712073
235	C	0.155108	0.748749	0.752401
236	N	0.165876	0.750838	0.787892
237	C	0.14533	0.897505	0.962986
238	C	0.160953	0.915171	0.669421
239	N	0.145571	0.900226	0.708744
240	H	0.157338	0.904305	0.932612
241	C	0.249935	0.265019	0.339546
242	C	0.249344	0.318765	0.00384
243	C	0.266325	0.300609	0.004899
244	C	0.267853	0.246875	0.339623
245	C	0.251463	0.211284	0.005068
246	C	0.268441	0.193119	0.004336
247	H	0.22628	0.197309	0.003938
248	C	0.249843	0.487935	0.339542
249	C	0.265995	0.468503	0.340177
250	C	0.248812	0.43337	0.3388
251	C	0.268002	0.023998	0.339529
252	C	0.269066	0.078576	0.338649
253	C	0.251861	0.043442	0.340136
254	H	0.226697	0.032441	0.341441
255	C	0.265251	0.414616	0.005607
256	N	0.261961	0.39781	0.299835
257	C	0.263904	0.369708	0.296175
258	C	0.265998	0.353875	0.002366
259	N	0.266531	0.369181	0.041832
260	C	0.267885	0.39904	0.045407
261	H	0.258378	0.357768	0.26574
262	C	0.265714	0.408681	0.085856
263	N	0.263506	0.41713	0.121449
264	C	0.252721	0.097421	0.005226
265	N	0.255825	0.114307	0.299621
266	C	0.253848	0.142404	0.296348
267	C	0.25178	0.157997	0.002798
268	N	0.251313	0.142574	0.042094
269	C	0.249948	0.112687	0.045315
270	H	0.25908	0.154436	0.26599
271	C	0.252251	0.10302	0.085699
272	N	0.254568	0.094554	0.121232
273	C	0.249935	0.265019	0.672878
274	C	0.249344	0.318765	0.337175
275	C	0.266325	0.300609	0.338234
276	C	0.267853	0.246875	0.672956
277	C	0.251463	0.211284	0.338402
278	C	0.268441	0.193119	0.33767
279	H	0.22628	0.197309	0.337271
280	C	0.249843	0.487935	0.672875
281	C	0.265995	0.468503	0.673509
282	C	0.248812	0.43337	0.672133
283	C	0.268002	0.023998	0.672862
284	C	0.269066	0.078576	0.671981
285	C	0.251861	0.043442	0.673469
286	H	0.226697	0.032441	0.674774
287	C	0.265251	0.414616	0.338942
288	N	0.261961	0.39781	0.633168
289	C	0.263904	0.369708	0.629508
290	C	0.265998	0.353875	0.335701
291	N	0.266531	0.369181	0.375165
292	C	0.267885	0.39904	0.37874
293	H	0.258378	0.357768	0.599073
294	C	0.265714	0.408681	0.41919
295	N	0.263506	0.41713	0.454782
296	C	0.252721	0.097421	0.338558
297	N	0.255825	0.114307	0.632955
298	C	0.253848	0.142404	0.62968
299	C	0.25178	0.157997	0.336131
300	N	0.251313	0.142574	0.375428
301	C	0.249948	0.112687	0.378649
302	H	0.25908	0.154436	0.599323
303	C	0.252251	0.10302	0.419031
304	N	0.254568	0.094554	0.454566
305	C	0.249935	0.265019	0.006214
306	C	0.249344	0.318765	0.670507
307	C	0.266325	0.300609	0.671566
308	C	0.267853	0.246875	0.006291
309	C	0.251463	0.211284	0.671735
310	C	0.268441	0.193119	0.671003
311	H	0.22628	0.197309	0.670605
312	C	0.249843	0.487935	0.00621
313	C	0.265995	0.468503	0.006842
314	C	0.248812	0.43337	0.005466
315	C	0.268002	0.023998	0.006195
316	C	0.269066	0.078576	0.005314
317	C	0.251861	0.043442	0.006803
318	H	0.226697	0.032441	0.008108
319	C	0.265251	0.414616	0.672275
320	N	0.261961	0.39781	0.966501
321	C	0.263904	0.369708	0.962841
322	C	0.265998	0.353875	0.669033
323	N	0.266531	0.369181	0.708498
324	C	0.267885	0.39904	0.712073
325	H	0.258378	0.357768	0.932406
326	C	0.265714	0.408681	0.752522
327	N	0.263506	0.41713	0.788115
328	C	0.252721	0.097421	0.671894
329	N	0.255825	0.114307	0.966288
330	C	0.253848	0.142404	0.963013
331	C	0.25178	0.157997	0.669465
332	N	0.251313	0.142574	0.708761
333	C	0.249948	0.112687	0.711982
334	H	0.25908	0.154436	0.932656
335	C	0.252251	0.10302	0.752364
336	N	0.254568	0.094554	0.787899
337	C	0.249935	0.765021	0.339546
338	C	0.249345	0.818766	0.00384
339	C	0.266324	0.800608	0.004899
340	C	0.267854	0.746875	0.339623
341	C	0.251462	0.711283	0.005068
342	C	0.268441	0.69312	0.004336
343	H	0.22628	0.697309	0.003938
344	C	0.249843	0.987934	0.339542
345	C	0.265995	0.968504	0.340177
346	C	0.248811	0.933371	0.3388
347	C	0.268002	0.523999	0.339529
348	C	0.269066	0.578574	0.338649
349	C	0.25186	0.543442	0.340136
350	H	0.226696	0.532441	0.341441
351	C	0.26525	0.914615	0.005607
352	N	0.26196	0.897809	0.299835
353	C	0.263903	0.869706	0.296175
354	C	0.265999	0.853876	0.002366
355	N	0.26653	0.86918	0.041832
356	C	0.267884	0.899038	0.045407
357	H	0.258379	0.857769	0.26574
358	C	0.265715	0.908682	0.085856
359	N	0.263505	0.917129	0.121449
360	C	0.25272	0.59742	0.005226
361	N	0.255824	0.614306	0.299621
362	C	0.253848	0.642403	0.296348
363	C	0.25178	0.657997	0.002798
364	N	0.251313	0.642575	0.042094
365	C	0.249948	0.612686	0.045315
366	H	0.259079	0.654435	0.26599
367	C	0.25225	0.60302	0.085699
368	N	0.254567	0.594553	0.121232
369	C	0.249935	0.765021	0.672878
370	C	0.249345	0.818766	0.337175
371	C	0.266324	0.800608	0.338234
372	C	0.267854	0.746875	0.672956
373	C	0.251462	0.711283	0.338402
374	C	0.268441	0.69312	0.33767
375	H	0.22628	0.697309	0.337271
376	C	0.249843	0.987934	0.672875
377	C	0.265995	0.968504	0.673509
378	C	0.248811	0.933371	0.672133
379	C	0.268002	0.523999	0.672862
380	C	0.269066	0.578574	0.671981
381	C	0.25186	0.543442	0.673469
382	H	0.226696	0.532441	0.674774
383	C	0.26525	0.914615	0.338942
384	N	0.26196	0.897809	0.633168
385	C	0.263903	0.869706	0.629508
386	C	0.265999	0.853876	0.335701
387	N	0.26653	0.86918	0.375165
388	C	0.267884	0.899038	0.37874
389	H	0.258379	0.857769	0.599073
390	C	0.265715	0.908682	0.41919
391	N	0.263505	0.917129	0.454782
392	C	0.25272	0.59742	0.338558
393	N	0.255824	0.614306	0.632955
394	C	0.253848	0.642403	0.62968
395	C	0.25178	0.657997	0.336131
396	N	0.251313	0.642575	0.375428
397	C	0.249948	0.612686	0.378649
398	H	0.259079	0.654435	0.599323
399	C	0.25225	0.60302	0.419031
400	N	0.254567	0.594553	0.454566
401	C	0.249935	0.765021	0.006214
402	C	0.249345	0.818766	0.670507
403	C	0.266324	0.800608	0.671566
404	C	0.267854	0.746875	0.006291
405	C	0.251462	0.711283	0.671735
406	C	0.268441	0.69312	0.671003
407	H	0.22628	0.697309	0.670605
408	C	0.249843	0.987934	0.00621
409	C	0.265995	0.968504	0.006842
410	C	0.248811	0.933371	0.005466
411	C	0.268002	0.523999	0.006195
412	C	0.269066	0.578574	0.005314
413	C	0.25186	0.543442	0.006803
414	H	0.226696	0.532441	0.008108
415	C	0.26525	0.914615	0.672275
416	N	0.26196	0.897809	0.966501
417	C	0.263903	0.869706	0.962841
418	C	0.265999	0.853876	0.669033
419	N	0.26653	0.86918	0.708498
420	C	0.267884	0.899038	0.712073
421	H	0.258379	0.857769	0.932406
422	C	0.265715	0.908682	0.752522
423	N	0.263505	0.917129	0.788115
424	C	0.25272	0.59742	0.671894
425	N	0.255824	0.614306	0.966288
426	C	0.253848	0.642403	0.963013
427	C	0.25178	0.657997	0.669465
428	N	0.251313	0.642575	0.708761
429	C	0.249948	0.612686	0.711982
430	H	0.259079	0.654435	0.932656
431	C	0.25225	0.60302	0.752364
432	N	0.254567	0.594553	0.787899
433	C	0.490923	0.247035	0.33962
434	C	0.471738	0.263442	0.005085
435	C	0.436604	0.246478	0.003951
436	C	0.419191	0.211394	0.33763
437	C	0.436371	0.193508	0.33847
438	C	0.471496	0.211451	0.340146
439	O	0.385264	0.194518	0.337734
440	H	0.4825	0.197294	0.341465
441	H	0.378727	0.19177	0.036357
442	H	0.482954	0.288633	0.004292
443	C	0.303524	0.210805	0.338355
444	C	0.321397	0.245877	0.338925
445	C	0.303435	0.263047	0.340264
446	O	0.32041	0.193767	0.338655
447	H	0.317574	0.288213	0.341549
448	H	0.32308	0.189993	0.037311
449	H	0.291511	0.314588	0.003975
450	H	0.291158	0.479513	0.341479
451	C	0.303592	0.043165	0.00497
452	C	0.321782	0.078301	0.00412
453	C	0.304135	0.095736	0.337964
454	O	0.321212	0.129662	0.338159
455	H	0.324978	0.136156	0.036796
456	H	0.317554	0.031941	0.003992
457	C	0.356578	0.262316	0.005648
458	N	0.370203	0.259124	0.299911
459	C	0.400231	0.26104	0.296288
460	C	0.418164	0.263149	0.002474
461	N	0.403336	0.263613	0.041916
462	C	0.374814	0.264942	0.045439
463	H	0.406835	0.255743	0.265829
464	C	0.362998	0.262657	0.085916
465	N	0.352335	0.260349	0.121525
466	C	0.417565	0.158318	0.005054
467	N	0.40067	0.144506	0.299487
468	C	0.372645	0.114373	0.296188
469	C	0.35688	0.096716	0.002609
470	N	0.372411	0.111798	0.041828
471	C	0.402317	0.140279	0.045129
472	H	0.360531	0.107745	0.26589
473	C	0.411918	0.152253	0.085526
474	N	0.420321	0.163038	0.121071
475	C	0.490923	0.247035	0.672953
476	C	0.471738	0.263442	0.338419
477	C	0.436604	0.246478	0.337284
478	C	0.419191	0.211394	0.670963
479	C	0.436371	0.193508	0.671802
480	C	0.471496	0.211451	0.673479
481	O	0.385264	0.194518	0.671071
482	H	0.4825	0.197294	0.674798
483	H	0.378727	0.19177	0.369691
484	H	0.482954	0.288633	0.337627
485	C	0.303524	0.210805	0.671688
486	C	0.321397	0.245877	0.672258
487	C	0.303435	0.263047	0.673597
488	O	0.32041	0.193767	0.671988
489	H	0.317574	0.288213	0.674882
490	H	0.32308	0.189993	0.370645
491	H	0.291511	0.314588	0.337309
492	H	0.291158	0.479513	0.674811
493	C	0.303592	0.043165	0.338305
494	C	0.321782	0.078301	0.337455
495	C	0.304135	0.095736	0.671297
496	O	0.321212	0.129662	0.671492
497	H	0.324978	0.136156	0.370129
498	H	0.317554	0.031941	0.337323
499	C	0.356578	0.262316	0.338983
500	N	0.370203	0.259124	0.633245
501	C	0.400231	0.26104	0.629623
502	C	0.418164	0.263149	0.335808
503	N	0.403336	0.263613	0.375249
504	C	0.374814	0.264942	0.378771
505	H	0.406835	0.255743	0.599161
506	C	0.362998	0.262657	0.419247
507	N	0.352335	0.260349	0.454859
508	C	0.417565	0.158318	0.338389
509	N	0.40067	0.144506	0.63282
510	C	0.372645	0.114373	0.629522
511	C	0.35688	0.096716	0.335941
512	N	0.372411	0.111798	0.375162
513	C	0.402317	0.140279	0.37846
514	H	0.360531	0.107745	0.599222
515	C	0.411918	0.152253	0.418859
516	N	0.420321	0.163038	0.454404
517	C	0.490923	0.247035	0.006288
518	C	0.471738	0.263442	0.671752
519	C	0.436604	0.246478	0.670619
520	C	0.419191	0.211394	0.004295
521	C	0.436371	0.193508	0.005135
522	C	0.471496	0.211451	0.006812
523	O	0.385264	0.194518	0.004403
524	H	0.4825	0.197294	0.008133
525	H	0.378727	0.19177	0.703023
526	H	0.482954	0.288633	0.670959
527	C	0.303524	0.210805	0.00502
528	C	0.321397	0.245877	0.005591
529	C	0.303435	0.263047	0.006932
530	O	0.32041	0.193767	0.005321
531	H	0.317574	0.288213	0.008216
532	H	0.32308	0.189993	0.703978
533	H	0.291511	0.314588	0.670642
534	H	0.291158	0.479513	0.008145
535	C	0.303592	0.043165	0.671637
536	C	0.321782	0.078301	0.670787
537	C	0.304135	0.095736	0.004629
538	O	0.321212	0.129662	0.004825
539	H	0.324978	0.136156	0.703462
540	H	0.317554	0.031941	0.670659
541	C	0.356578	0.262316	0.672315
542	N	0.370203	0.259124	0.966578
543	C	0.400231	0.26104	0.962955
544	C	0.418164	0.263149	0.669141
545	N	0.403336	0.263613	0.708582
546	C	0.374814	0.264942	0.712103
547	H	0.406835	0.255743	0.932494
548	C	0.362998	0.262657	0.75258
549	N	0.352335	0.260349	0.788192
550	C	0.417565	0.158318	0.671722
551	N	0.40067	0.144506	0.966153
552	C	0.372645	0.114373	0.962854
553	C	0.35688	0.096716	0.669273
554	N	0.372411	0.111798	0.708494
555	C	0.402317	0.140279	0.711793
556	H	0.360531	0.107745	0.932554
557	C	0.411918	0.152253	0.752192
558	N	0.420321	0.163038	0.787737
559	C	0.490922	0.747034	0.33962
560	C	0.471739	0.763443	0.005085
561	C	0.436603	0.746478	0.003951
562	C	0.419191	0.711395	0.33763
563	C	0.436371	0.693508	0.33847
564	C	0.471497	0.711452	0.340146
565	O	0.385264	0.694516	0.337734
566	H	0.482501	0.697294	0.341465
567	H	0.378726	0.691769	0.036357
568	H	0.482953	0.788631	0.004292
569	C	0.303523	0.710803	0.338355
570	C	0.321396	0.745877	0.338925
571	C	0.303435	0.763048	0.340264
572	O	0.320409	0.693766	0.338655
573	H	0.317575	0.788214	0.341549
574	H	0.32308	0.689992	0.037311
575	H	0.291512	0.81459	0.003975
576	H	0.291157	0.979512	0.341479
577	C	0.303592	0.543166	0.00497
578	C	0.321782	0.578301	0.00412
579	C	0.304136	0.595736	0.337964
580	O	0.321213	0.629661	0.338159
581	H	0.324977	0.636155	0.036796
582	H	0.317553	0.531939	0.003992
583	C	0.356578	0.762318	0.005648
584	N	0.370204	0.759125	0.299911
585	C	0.400232	0.761038	0.296288
586	C	0.418163	0.763147	0.002474
587	N	0.403335	0.763612	0.041916
588	C	0.374815	0.764944	0.045439
589	H	0.406835	0.755744	0.265829
590	C	0.362998	0.762658	0.085916
591	N	0.352334	0.76035	0.121525
592	C	0.417564	0.658318	0.005054
593	N	0.400669	0.644505	0.299487
594	C	0.372645	0.614373	0.296188
595	C	0.356879	0.596715	0.002609
596	N	0.372411	0.611797	0.041828
597	C	0.402316	0.640279	0.045129
598	H	0.360531	0.607745	0.26589
599	C	0.411918	0.652254	0.085526
600	N	0.420321	0.663038	0.121071
601	C	0.490922	0.747034	0.672953
602	C	0.471739	0.763443	0.338419
603	C	0.436603	0.746478	0.337284
604	C	0.419191	0.711395	0.670963
605	C	0.436371	0.693508	0.671802
606	C	0.471497	0.711452	0.673479
607	O	0.385264	0.694516	0.671071
608	H	0.482501	0.697294	0.674798
609	H	0.378726	0.691769	0.369691
610	H	0.482953	0.788631	0.337627
611	C	0.303523	0.710803	0.671688
612	C	0.321396	0.745877	0.672258
613	C	0.303435	0.763048	0.673597
614	O	0.320409	0.693766	0.671988
615	H	0.317575	0.788214	0.674882
616	H	0.32308	0.689992	0.370645
617	H	0.291512	0.81459	0.337309
618	H	0.291157	0.979512	0.674811
619	C	0.303592	0.543166	0.338305
620	C	0.321782	0.578301	0.337455
621	C	0.304136	0.595736	0.671297
622	O	0.321213	0.629661	0.671492
623	H	0.324977	0.636155	0.370129
624	H	0.317553	0.531939	0.337323
625	C	0.356578	0.762318	0.338983
626	N	0.370204	0.759125	0.633245
627	C	0.400232	0.761038	0.629623
628	C	0.418163	0.763147	0.335808
629	N	0.403335	0.763612	0.375249
630	C	0.374815	0.764944	0.378771
631	H	0.406835	0.755744	0.599161
632	C	0.362998	0.762658	0.419247
633	N	0.352334	0.76035	0.454859
634	C	0.417564	0.658318	0.338389
635	N	0.400669	0.644505	0.63282
636	C	0.372645	0.614373	0.629522
637	C	0.356879	0.596715	0.335941
638	N	0.372411	0.611797	0.375162
639	C	0.402316	0.640279	0.37846
640	H	0.360531	0.607745	0.599222
641	C	0.411918	0.652254	0.418859
642	N	0.420321	0.663038	0.454404
643	C	0.490922	0.747034	0.006288
644	C	0.471739	0.763443	0.671752
645	C	0.436603	0.746478	0.670619
646	C	0.419191	0.711395	0.004295
647	C	0.436371	0.693508	0.005135
648	C	0.471497	0.711452	0.006812
649	O	0.385264	0.694516	0.004403
650	H	0.482501	0.697294	0.008133
651	H	0.378726	0.691769	0.703023
652	H	0.482953	0.788631	0.670959
653	C	0.303523	0.710803	0.00502
654	C	0.321396	0.745877	0.005591
655	C	0.303435	0.763048	0.006932
656	O	0.320409	0.693766	0.005321
657	H	0.317575	0.788214	0.008216
658	H	0.32308	0.689992	0.703978
659	H	0.291512	0.81459	0.670642
660	H	0.291157	0.979512	0.008145
661	C	0.303592	0.543166	0.671637
662	C	0.321782	0.578301	0.670787
663	C	0.304136	0.595736	0.004629
664	O	0.321213	0.629661	0.004825
665	H	0.324977	0.636155	0.703462
666	H	0.317553	0.531939	0.670659
667	C	0.356578	0.762318	0.672315
668	N	0.370204	0.759125	0.966578
669	C	0.400232	0.761038	0.962955
670	C	0.418163	0.763147	0.669141
671	N	0.403335	0.763612	0.708582
672	C	0.374815	0.764944	0.712103
673	H	0.406835	0.755744	0.932494
674	C	0.362998	0.762658	0.75258
675	N	0.352334	0.76035	0.788192
676	C	0.417564	0.658318	0.671722
677	N	0.400669	0.644505	0.966153
678	C	0.372645	0.614373	0.962854
679	C	0.356879	0.596715	0.669273
680	N	0.372411	0.611797	0.708494
681	C	0.402316	0.640279	0.711793
682	H	0.360531	0.607745	0.932554
683	C	0.411918	0.652254	0.752192
684	N	0.420321	0.663038	0.787737
685	C	0.526986	0.264945	0.339644
686	C	0.546416	0.30053	0.340106
687	C	0.581548	0.318466	0.338659
688	C	0.598722	0.300572	0.338052
689	C	0.581303	0.265489	0.004187
690	C	0.546167	0.248531	0.005203
691	H	0.535411	0.31469	0.341286
692	O	0.632645	0.31744	0.338345
693	C	0.990923	0.247035	0.33962
694	C	0.971738	0.263442	0.005085
695	C	0.936604	0.246478	0.003951
696	C	0.919191	0.211394	0.33763
697	C	0.936371	0.193508	0.33847
698	C	0.971496	0.211451	0.340146
699	O	0.885264	0.194518	0.337734
700	H	0.9825	0.197294	0.341465
701	H	0.63909	0.320086	0.036999
702	H	0.878727	0.19177	0.036357
703	H	0.534952	0.223342	0.00439
704	H	0.982954	0.288633	0.004292
705	C	0.749934	0.265019	0.339546
706	C	0.714354	0.248849	0.340197
707	C	0.696387	0.266006	0.33846
708	C	0.714262	0.301076	0.337637
709	C	0.749344	0.318765	0.00384
710	C	0.766327	0.300609	0.004899
711	H	0.700218	0.223689	0.341718
712	O	0.697379	0.318119	0.337873
713	C	0.767854	0.246875	0.339623
714	C	0.751464	0.211284	0.005068
715	C	0.768442	0.193119	0.004336
716	C	0.803524	0.210805	0.338355
717	C	0.821398	0.245877	0.338925
718	C	0.803436	0.263047	0.340264
719	O	0.82041	0.193767	0.338655
720	H	0.817575	0.288213	0.341549
721	H	0.69466	0.321872	0.03652
722	H	0.82308	0.189993	0.037311
723	H	0.791511	0.314588	0.003975
724	H	0.726279	0.197309	0.003938
725	C	0.749843	0.487935	0.339542
726	C	0.765994	0.468503	0.340177
727	C	0.748813	0.43337	0.3388
728	C	0.71374	0.416194	0.338261
729	C	0.696075	0.433613	0.004248
730	C	0.714254	0.468754	0.00499
731	H	0.791159	0.479513	0.341479
732	O	0.696686	0.382271	0.338595
733	C	0.768002	0.023998	0.339529
734	C	0.803592	0.043165	0.00497
735	C	0.821782	0.078301	0.00412
736	C	0.804137	0.095736	0.337964
737	C	0.769066	0.078576	0.338649
738	C	0.751861	0.043442	0.340136
739	O	0.821214	0.129662	0.338159
740	H	0.726698	0.032441	0.341441
741	H	0.692959	0.375841	0.037256
742	H	0.824978	0.136156	0.036796
743	H	0.70029	0.479978	0.003928
744	H	0.817554	0.031941	0.003992
745	C	0.661185	0.24957	0.005341
746	N	0.647549	0.252938	0.299758
747	C	0.61748	0.250983	0.296519
748	C	0.599752	0.248819	0.003003
749	N	0.614657	0.248119	0.042221
750	C	0.643152	0.246713	0.045408
751	H	0.610906	0.256511	0.2662
752	C	0.655107	0.248747	0.085735
753	N	0.665878	0.250839	0.121227
754	C	0.765251	0.414616	0.005607
755	N	0.761962	0.39781	0.299835
756	C	0.763905	0.369708	0.296175
757	C	0.766	0.353875	0.002366
758	N	0.766531	0.369181	0.041832
759	C	0.767885	0.39904	0.045407
760	H	0.758378	0.357768	0.26574
761	C	0.765715	0.408681	0.085856
762	N	0.763507	0.41713	0.121449
763	C	0.600374	0.353656	0.00524
764	N	0.617229	0.367439	0.299616
765	C	0.64533	0.397507	0.296319
766	C	0.660954	0.41517	0.002754
767	N	0.645574	0.400227	0.042078
768	C	0.615725	0.37167	0.045311
769	H	0.657338	0.404306	0.265944
770	C	0.605938	0.359733	0.085684
771	N	0.597368	0.348974	0.121206
772	C	0.856578	0.262316	0.005648
773	N	0.870205	0.259124	0.299911
774	C	0.900234	0.26104	0.296288
775	C	0.918164	0.263149	0.002474
776	N	0.903336	0.263613	0.041916
777	C	0.874814	0.264942	0.045439
778	H	0.906835	0.255743	0.265829
779	C	0.862998	0.262657	0.085916
780	N	0.852335	0.260349	0.121525
781	C	0.752721	0.097421	0.005226
782	N	0.755826	0.114307	0.299621
783	C	0.753848	0.142404	0.296348
784	C	0.75178	0.157997	0.002798
785	N	0.751313	0.142574	0.042094
786	C	0.749949	0.112687	0.045315
787	H	0.759081	0.154436	0.26599
788	C	0.75225	0.10302	0.085699
789	N	0.754569	0.094554	0.121232
790	C	0.917565	0.158318	0.005054
791	N	0.90067	0.144506	0.299487
792	C	0.872647	0.114373	0.296188
793	C	0.85688	0.096716	0.002609
794	N	0.872411	0.111798	0.041828
795	C	0.902317	0.140279	0.045129
796	H	0.860531	0.107745	0.26589
797	C	0.911918	0.152253	0.085526
798	N	0.920321	0.163038	0.121071
799	C	0.526986	0.264945	0.672976
800	C	0.546416	0.30053	0.673438
801	C	0.581548	0.318466	0.671991
802	C	0.598722	0.300572	0.671384
803	C	0.581303	0.265489	0.337519
804	C	0.546167	0.248531	0.338537
805	H	0.535411	0.31469	0.674619
806	O	0.632645	0.31744	0.671678
807	C	0.990923	0.247035	0.672953
808	C	0.971738	0.263442	0.338419
809	C	0.936604	0.246478	0.337284
810	C	0.919191	0.211394	0.670963
811	C	0.936371	0.193508	0.671802
812	C	0.971496	0.211451	0.673479
813	O	0.885264	0.194518	0.671071
814	H	0.9825	0.197294	0.674798
815	H	0.63909	0.320086	0.370331
816	H	0.878727	0.19177	0.369691
817	H	0.534952	0.223342	0.337724
818	H	0.982954	0.288633	0.337627
819	C	0.749934	0.265019	0.672878
820	C	0.714354	0.248849	0.673529
821	C	0.696387	0.266006	0.671792
822	C	0.714262	0.301076	0.670969
823	C	0.749344	0.318765	0.337175
824	C	0.766327	0.300609	0.338234
825	H	0.700218	0.223689	0.675051
826	O	0.697379	0.318119	0.671205
827	C	0.767854	0.246875	0.672956
828	C	0.751464	0.211284	0.338402
829	C	0.768442	0.193119	0.33767
830	C	0.803524	0.210805	0.671688
831	C	0.821398	0.245877	0.672258
832	C	0.803436	0.263047	0.673597
833	O	0.82041	0.193767	0.671988
834	H	0.817575	0.288213	0.674882
835	H	0.69466	0.321872	0.369852
836	H	0.82308	0.189993	0.370645
837	H	0.791511	0.314588	0.337309
838	H	0.726279	0.197309	0.337271
839	C	0.749843	0.487935	0.672875
840	C	0.765994	0.468503	0.673509
841	C	0.748813	0.43337	0.672133
842	C	0.71374	0.416194	0.671593
843	C	0.696075	0.433613	0.337583
844	C	0.714254	0.468754	0.338325
845	H	0.791159	0.479513	0.674811
846	O	0.696686	0.382271	0.671927
847	C	0.768002	0.023998	0.672862
848	C	0.803592	0.043165	0.338305
849	C	0.821782	0.078301	0.337455
850	C	0.804137	0.095736	0.671297
851	C	0.769066	0.078576	0.671981
852	C	0.751861	0.043442	0.673469
853	O	0.821214	0.129662	0.671492
854	H	0.726698	0.032441	0.674774
855	H	0.692959	0.375841	0.370588
856	H	0.824978	0.136156	0.370129
857	H	0.70029	0.479978	0.337261
858	H	0.817554	0.031941	0.337323
859	C	0.661185	0.24957	0.338676
860	N	0.647549	0.252938	0.63309
861	C	0.61748	0.250983	0.629852
862	C	0.599752	0.248819	0.336336
863	N	0.614657	0.248119	0.375553
864	C	0.643152	0.246713	0.37874
865	H	0.610906	0.256511	0.599532
866	C	0.655107	0.248747	0.419068
867	N	0.665878	0.250839	0.454559
868	C	0.765251	0.414616	0.338942
869	N	0.761962	0.39781	0.633168
870	C	0.763905	0.369708	0.629508
871	C	0.766	0.353875	0.335701
872	N	0.766531	0.369181	0.375165
873	C	0.767885	0.39904	0.37874
874	H	0.758378	0.357768	0.599073
875	C	0.765715	0.408681	0.41919
876	N	0.763507	0.41713	0.454782
877	C	0.600374	0.353656	0.338574
878	N	0.617229	0.367439	0.632949
879	C	0.64533	0.397507	0.629653
880	C	0.660954	0.41517	0.336089
881	N	0.645574	0.400227	0.375411
882	C	0.615725	0.37167	0.378643
883	H	0.657338	0.404306	0.599279
884	C	0.605938	0.359733	0.419018
885	N	0.597368	0.348974	0.454539
886	C	0.856578	0.262316	0.338983
887	N	0.870205	0.259124	0.633245
888	C	0.900234	0.26104	0.629623
889	C	0.918164	0.263149	0.335808
890	N	0.903336	0.263613	0.375249
891	C	0.874814	0.264942	0.378771
892	H	0.906835	0.255743	0.599161
893	C	0.862998	0.262657	0.419247
894	N	0.852335	0.260349	0.454859
895	C	0.752721	0.097421	0.338558
896	N	0.755826	0.114307	0.632955
897	C	0.753848	0.142404	0.62968
898	C	0.75178	0.157997	0.336131
899	N	0.751313	0.142574	0.375428
900	C	0.749949	0.112687	0.378649
901	H	0.759081	0.154436	0.599323
902	C	0.75225	0.10302	0.419031
903	N	0.754569	0.094554	0.454566
904	C	0.917565	0.158318	0.338389
905	N	0.90067	0.144506	0.63282
906	C	0.872647	0.114373	0.629522
907	C	0.85688	0.096716	0.335941
908	N	0.872411	0.111798	0.375162
909	C	0.902317	0.140279	0.37846
910	H	0.860531	0.107745	0.599222
911	C	0.911918	0.152253	0.418859
912	N	0.920321	0.163038	0.454404
913	C	0.526986	0.264945	0.006311
914	C	0.546416	0.30053	0.006772
915	C	0.581548	0.318466	0.005324
916	C	0.598722	0.300572	0.004717
917	C	0.581303	0.265489	0.670851
918	C	0.546167	0.248531	0.67187
919	H	0.535411	0.31469	0.007953
920	O	0.632645	0.31744	0.00501
921	C	0.990923	0.247035	0.006288
922	C	0.971738	0.263442	0.671752
923	C	0.936604	0.246478	0.670619
924	C	0.919191	0.211394	0.004295
925	C	0.936371	0.193508	0.005135
926	C	0.971496	0.211451	0.006812
927	O	0.885264	0.194518	0.004403
928	H	0.9825	0.197294	0.008133
929	H	0.63909	0.320086	0.703664
930	H	0.878727	0.19177	0.703023
931	H	0.534952	0.223342	0.671057
932	H	0.982954	0.288633	0.670959
933	C	0.749934	0.265019	0.006214
934	C	0.714354	0.248849	0.006865
935	C	0.696387	0.266006	0.005125
936	C	0.714262	0.301076	0.004302
937	C	0.749344	0.318765	0.670507
938	C	0.766327	0.300609	0.671566
939	H	0.700218	0.223689	0.008386
940	O	0.697379	0.318119	0.004538
941	C	0.767854	0.246875	0.006291
942	C	0.751464	0.211284	0.671735
943	C	0.768442	0.193119	0.671003
944	C	0.803524	0.210805	0.00502
945	C	0.821398	0.245877	0.005591
946	C	0.803436	0.263047	0.006932
947	O	0.82041	0.193767	0.005321
948	H	0.817575	0.288213	0.008216
949	H	0.69466	0.321872	0.703185
950	H	0.82308	0.189993	0.703978
951	H	0.791511	0.314588	0.670642
952	H	0.726279	0.197309	0.670605
953	C	0.749843	0.487935	0.00621
954	C	0.765994	0.468503	0.006842
955	C	0.748813	0.43337	0.005466
956	C	0.71374	0.416194	0.004926
957	C	0.696075	0.433613	0.670915
958	C	0.714254	0.468754	0.671657
959	H	0.791159	0.479513	0.008145
960	O	0.696686	0.382271	0.00526
961	C	0.768002	0.023998	0.006195
962	C	0.803592	0.043165	0.671637
963	C	0.821782	0.078301	0.670787
964	C	0.804137	0.095736	0.004629
965	C	0.769066	0.078576	0.005314
966	C	0.751861	0.043442	0.006803
967	O	0.821214	0.129662	0.004825
968	H	0.726698	0.032441	0.008108
969	H	0.692959	0.375841	0.70392
970	H	0.824978	0.136156	0.703462
971	H	0.70029	0.479978	0.670595
972	H	0.817554	0.031941	0.670659
973	C	0.661185	0.24957	0.672008
974	N	0.647549	0.252938	0.966423
975	C	0.61748	0.250983	0.963185
976	C	0.599752	0.248819	0.669671
977	N	0.614657	0.248119	0.708886
978	C	0.643152	0.246713	0.712073
979	H	0.610906	0.256511	0.932865
980	C	0.655107	0.248747	0.752401
981	N	0.665878	0.250839	0.787892
982	C	0.765251	0.414616	0.672275
983	N	0.761962	0.39781	0.966501
984	C	0.763905	0.369708	0.962841
985	C	0.766	0.353875	0.669033
986	N	0.766531	0.369181	0.708498
987	C	0.767885	0.39904	0.712073
988	H	0.758378	0.357768	0.932406
989	C	0.765715	0.408681	0.752522
990	N	0.763507	0.41713	0.788115
991	C	0.600374	0.353656	0.671907
992	N	0.617229	0.367439	0.966281
993	C	0.64533	0.397507	0.962986
994	C	0.660954	0.41517	0.669421
995	N	0.645574	0.400227	0.708744
996	C	0.615725	0.37167	0.711975
997	H	0.657338	0.404306	0.932612
998	C	0.605938	0.359733	0.75235
999	N	0.597368	0.348974	0.787872
1000	C	0.856578	0.262316	0.672315
1001	N	0.870205	0.259124	0.966578
1002	C	0.900234	0.26104	0.962955
1003	C	0.918164	0.263149	0.669141
1004	N	0.903336	0.263613	0.708582
1005	C	0.874814	0.264942	0.712103
1006	H	0.906835	0.255743	0.932494
1007	C	0.862998	0.262657	0.75258
1008	N	0.852335	0.260349	0.788192
1009	C	0.752721	0.097421	0.671894
1010	N	0.755826	0.114307	0.966288
1011	C	0.753848	0.142404	0.963013
1012	C	0.75178	0.157997	0.669465
1013	N	0.751313	0.142574	0.708761
1014	C	0.749949	0.112687	0.711982
1015	H	0.759081	0.154436	0.932656
1016	C	0.75225	0.10302	0.752364
1017	N	0.754569	0.094554	0.787899
1018	C	0.917565	0.158318	0.671722
1019	N	0.90067	0.144506	0.966153
1020	C	0.872647	0.114373	0.962854
1021	C	0.85688	0.096716	0.669273
1022	N	0.872411	0.111798	0.708494
1023	C	0.902317	0.140279	0.711793
1024	H	0.860531	0.107745	0.932554
1025	C	0.911918	0.152253	0.752192
1026	N	0.920321	0.163038	0.787737
1027	C	0.526986	0.764944	0.339644
1028	C	0.546415	0.800529	0.340106
1029	C	0.581547	0.818465	0.338659
1030	C	0.59872	0.800571	0.338052
1031	C	0.581302	0.76549	0.004187
1032	C	0.546166	0.74853	0.005203
1033	H	0.535412	0.814692	0.341286
1034	O	0.632645	0.817442	0.338345
1035	C	0.990923	0.747034	0.33962
1036	C	0.971739	0.763443	0.005085
1037	C	0.936604	0.746478	0.003951
1038	C	0.919191	0.711395	0.33763
1039	C	0.936371	0.693508	0.33847
1040	C	0.971496	0.711452	0.340146
1041	O	0.885264	0.694516	0.337734
1042	H	0.9825	0.697294	0.341465
1043	H	0.639091	0.820087	0.036999
1044	H	0.878726	0.691769	0.036357
1045	H	0.534951	0.723342	0.00439
1046	H	0.982954	0.788631	0.004292
1047	C	0.749935	0.765021	0.339546
1048	C	0.714353	0.748848	0.340197
1049	C	0.696388	0.766007	0.33846
1050	C	0.714263	0.801078	0.337637
1051	C	0.749344	0.818766	0.00384
1052	C	0.766326	0.800608	0.004899
1053	H	0.700218	0.723689	0.341718
1054	O	0.697378	0.818117	0.337873
1055	C	0.767855	0.746875	0.339623
1056	C	0.751463	0.711283	0.005068
1057	C	0.768443	0.69312	0.004336
1058	C	0.803523	0.710803	0.338355
1059	C	0.821398	0.745877	0.338925
1060	C	0.803437	0.763048	0.340264
1061	O	0.820409	0.693766	0.338655
1062	H	0.817575	0.788214	0.341549
1063	H	0.69466	0.821871	0.03652
1064	H	0.823079	0.689992	0.037311
1065	H	0.791512	0.81459	0.003975
1066	H	0.726279	0.697309	0.003938
1067	C	0.749843	0.987934	0.339542
1068	C	0.765995	0.968504	0.340177
1069	C	0.748813	0.933371	0.3388
1070	C	0.713739	0.916192	0.338261
1071	C	0.696075	0.933612	0.004248
1072	C	0.714255	0.968755	0.00499
1073	H	0.791157	0.979512	0.341479
1074	O	0.696685	0.882269	0.338595
1075	C	0.768002	0.523999	0.339529
1076	C	0.803592	0.543166	0.00497
1077	C	0.821782	0.578301	0.00412
1078	C	0.804137	0.595736	0.337964
1079	C	0.769066	0.578574	0.338649
1080	C	0.751861	0.543442	0.340136
1081	O	0.821214	0.629661	0.338159
1082	H	0.726696	0.532441	0.341441
1083	H	0.692959	0.87584	0.037256
1084	H	0.824977	0.636155	0.036796
1085	H	0.70029	0.979977	0.003928
1086	H	0.817553	0.531939	0.003992
1087	C	0.661186	0.749571	0.005341
1088	N	0.647549	0.752937	0.299758
1089	C	0.61748	0.750984	0.296519
1090	C	0.599751	0.748818	0.003003
1091	N	0.614658	0.74812	0.042221
1092	C	0.643153	0.746714	0.045408
1093	H	0.610907	0.756512	0.2662
1094	C	0.655108	0.748749	0.085735
1095	N	0.665877	0.750838	0.121227
1096	C	0.765251	0.914615	0.005607
1097	N	0.761962	0.897809	0.299835
1098	C	0.763904	0.869706	0.296175
1099	C	0.766	0.853876	0.002366
1100	N	0.76653	0.86918	0.041832
1101	C	0.767884	0.899038	0.045407
1102	H	0.758379	0.857769	0.26574
1103	C	0.765716	0.908682	0.085856
1104	N	0.763504	0.917129	0.121449
1105	C	0.600372	0.853655	0.00524
1106	N	0.617227	0.867438	0.299616
1107	C	0.64533	0.897505	0.296319
1108	C	0.660954	0.915171	0.002754
1109	N	0.645573	0.900226	0.042078
1110	C	0.615726	0.871671	0.045311
1111	H	0.657338	0.904305	0.265944
1112	C	0.605937	0.859732	0.085684
1113	N	0.597367	0.848972	0.121206
1114	C	0.856578	0.762318	0.005648
1115	N	0.870204	0.759125	0.299911
1116	C	0.900233	0.761038	0.296288
1117	C	0.918164	0.763147	0.002474
1118	N	0.903336	0.763612	0.041916
1119	C	0.874815	0.764944	0.045439
1120	H	0.906835	0.755744	0.265829
1121	C	0.862999	0.762658	0.085916
1122	N	0.852335	0.76035	0.121525
1123	C	0.75272	0.59742	0.005226
1124	N	0.755826	0.614306	0.299621
1125	C	0.753848	0.642403	0.296348
1126	C	0.75178	0.657997	0.002798
1127	N	0.751313	0.642575	0.042094
1128	C	0.749949	0.612686	0.045315
1129	H	0.759081	0.654435	0.26599
1130	C	0.75225	0.60302	0.085699
1131	N	0.754568	0.594553	0.121232
1132	C	0.917565	0.658318	0.005054
1133	N	0.900669	0.644505	0.299487
1134	C	0.872647	0.614373	0.296188
1135	C	0.856879	0.596715	0.002609
1136	N	0.872411	0.611797	0.041828
1137	C	0.902317	0.640279	0.045129
1138	H	0.860531	0.607745	0.26589
1139	C	0.911919	0.652254	0.085526
1140	N	0.920321	0.663038	0.121071
1141	C	0.526986	0.764944	0.672976
1142	C	0.546415	0.800529	0.673438
1143	C	0.581547	0.818465	0.671991
1144	C	0.59872	0.800571	0.671384
1145	C	0.581302	0.76549	0.337519
1146	C	0.546166	0.74853	0.338537
1147	H	0.535412	0.814692	0.674619
1148	O	0.632645	0.817442	0.671678
1149	C	0.990923	0.747034	0.672953
1150	C	0.971739	0.763443	0.338419
1151	C	0.936604	0.746478	0.337284
1152	C	0.919191	0.711395	0.670963
1153	C	0.936371	0.693508	0.671802
1154	C	0.971496	0.711452	0.673479
1155	O	0.885264	0.694516	0.671071
1156	H	0.9825	0.697294	0.674798
1157	H	0.639091	0.820087	0.370331
1158	H	0.878726	0.691769	0.369691
1159	H	0.534951	0.723342	0.337724
1160	H	0.982954	0.788631	0.337627
1161	C	0.749935	0.765021	0.672878
1162	C	0.714353	0.748848	0.673529
1163	C	0.696388	0.766007	0.671792
1164	C	0.714263	0.801078	0.670969
1165	C	0.749344	0.818766	0.337175
1166	C	0.766326	0.800608	0.338234
1167	H	0.700218	0.723689	0.675051
1168	O	0.697378	0.818117	0.671205
1169	C	0.767855	0.746875	0.672956
1170	C	0.751463	0.711283	0.338402
1171	C	0.768443	0.69312	0.33767
1172	C	0.803523	0.710803	0.671688
1173	C	0.821398	0.745877	0.672258
1174	C	0.803437	0.763048	0.673597
1175	O	0.820409	0.693766	0.671988
1176	H	0.817575	0.788214	0.674882
1177	H	0.69466	0.821871	0.369852
1178	H	0.823079	0.689992	0.370645
1179	H	0.791512	0.81459	0.337309
1180	H	0.726279	0.697309	0.337271
1181	C	0.749843	0.987934	0.672875
1182	C	0.765995	0.968504	0.673509
1183	C	0.748813	0.933371	0.672133
1184	C	0.713739	0.916192	0.671593
1185	C	0.696075	0.933612	0.337583
1186	C	0.714255	0.968755	0.338325
1187	H	0.791157	0.979512	0.674811
1188	O	0.696685	0.882269	0.671927
1189	C	0.768002	0.523999	0.672862
1190	C	0.803592	0.543166	0.338305
1191	C	0.821782	0.578301	0.337455
1192	C	0.804137	0.595736	0.671297
1193	C	0.769066	0.578574	0.671981
1194	C	0.751861	0.543442	0.673469
1195	O	0.821214	0.629661	0.671492
1196	H	0.726696	0.532441	0.674774
1197	H	0.692959	0.87584	0.370588
1198	H	0.824977	0.636155	0.370129
1199	H	0.70029	0.979977	0.337261
1200	H	0.817553	0.531939	0.337323
1201	C	0.661186	0.749571	0.338676
1202	N	0.647549	0.752937	0.63309
1203	C	0.61748	0.750984	0.629852
1204	C	0.599751	0.748818	0.336336
1205	N	0.614658	0.74812	0.375553
1206	C	0.643153	0.746714	0.37874
1207	H	0.610907	0.756512	0.599532
1208	C	0.655108	0.748749	0.419068
1209	N	0.665877	0.750838	0.454559
1210	C	0.765251	0.914615	0.338942
1211	N	0.761962	0.897809	0.633168
1212	C	0.763904	0.869706	0.629508
1213	C	0.766	0.853876	0.335701
1214	N	0.76653	0.86918	0.375165
1215	C	0.767884	0.899038	0.37874
1216	H	0.758379	0.857769	0.599073
1217	C	0.765716	0.908682	0.41919
1218	N	0.763504	0.917129	0.454782
1219	C	0.600372	0.853655	0.338574
1220	N	0.617227	0.867438	0.632949
1221	C	0.64533	0.897505	0.629653
1222	C	0.660954	0.915171	0.336089
1223	N	0.645573	0.900226	0.375411
1224	C	0.615726	0.871671	0.378643
1225	H	0.657338	0.904305	0.599279
1226	C	0.605937	0.859732	0.419018
1227	N	0.597367	0.848972	0.454539
1228	C	0.856578	0.762318	0.338983
1229	N	0.870204	0.759125	0.633245
1230	C	0.900233	0.761038	0.629623
1231	C	0.918164	0.763147	0.335808
1232	N	0.903336	0.763612	0.375249
1233	C	0.874815	0.764944	0.378771
1234	H	0.906835	0.755744	0.599161
1235	C	0.862999	0.762658	0.419247
1236	N	0.852335	0.76035	0.454859
1237	C	0.75272	0.59742	0.338558
1238	N	0.755826	0.614306	0.632955
1239	C	0.753848	0.642403	0.62968
1240	C	0.75178	0.657997	0.336131
1241	N	0.751313	0.642575	0.375428
1242	C	0.749949	0.612686	0.378649
1243	H	0.759081	0.654435	0.599323
1244	C	0.75225	0.60302	0.419031
1245	N	0.754568	0.594553	0.454566
1246	C	0.917565	0.658318	0.338389
1247	N	0.900669	0.644505	0.63282
1248	C	0.872647	0.614373	0.629522
1249	C	0.856879	0.596715	0.335941
1250	N	0.872411	0.611797	0.375162
1251	C	0.902317	0.640279	0.37846
1252	H	0.860531	0.607745	0.599222
1253	C	0.911919	0.652254	0.418859
1254	N	0.920321	0.663038	0.454404
1255	C	0.526986	0.764944	0.006311
1256	C	0.546415	0.800529	0.006772
1257	C	0.581547	0.818465	0.005324
1258	C	0.59872	0.800571	0.004717
1259	C	0.581302	0.76549	0.670851
1260	C	0.546166	0.74853	0.67187
1261	H	0.535412	0.814692	0.007953
1262	O	0.632645	0.817442	0.00501
1263	C	0.990923	0.747034	0.006288
1264	C	0.971739	0.763443	0.671752
1265	C	0.936604	0.746478	0.670619
1266	C	0.919191	0.711395	0.004295
1267	C	0.936371	0.693508	0.005135
1268	C	0.971496	0.711452	0.006812
1269	O	0.885264	0.694516	0.004403
1270	H	0.9825	0.697294	0.008133
1271	H	0.639091	0.820087	0.703664
1272	H	0.878726	0.691769	0.703023
1273	H	0.534951	0.723342	0.671057
1274	H	0.982954	0.788631	0.670959
1275	C	0.749935	0.765021	0.006214
1276	C	0.714353	0.748848	0.006865
1277	C	0.696388	0.766007	0.005125
1278	C	0.714263	0.801078	0.004302
1279	C	0.749344	0.818766	0.670507
1280	C	0.766326	0.800608	0.671566
1281	H	0.700218	0.723689	0.008386
1282	O	0.697378	0.818117	0.004538
1283	C	0.767855	0.746875	0.006291
1284	C	0.751463	0.711283	0.671735
1285	C	0.768443	0.69312	0.671003
1286	C	0.803523	0.710803	0.00502
1287	C	0.821398	0.745877	0.005591
1288	C	0.803437	0.763048	0.006932
1289	O	0.820409	0.693766	0.005321
1290	H	0.817575	0.788214	0.008216
1291	H	0.69466	0.821871	0.703185
1292	H	0.823079	0.689992	0.703978
1293	H	0.791512	0.81459	0.670642
1294	H	0.726279	0.697309	0.670605
1295	C	0.749843	0.987934	0.00621
1296	C	0.765995	0.968504	0.006842
1297	C	0.748813	0.933371	0.005466
1298	C	0.713739	0.916192	0.004926
1299	C	0.696075	0.933612	0.670915
1300	C	0.714255	0.968755	0.671657
1301	H	0.791157	0.979512	0.008145
1302	O	0.696685	0.882269	0.00526
1303	C	0.768002	0.523999	0.006195
1304	C	0.803592	0.543166	0.671637
1305	C	0.821782	0.578301	0.670787
1306	C	0.804137	0.595736	0.004629
1307	C	0.769066	0.578574	0.005314
1308	C	0.751861	0.543442	0.006803
1309	O	0.821214	0.629661	0.004825
1310	H	0.726696	0.532441	0.008108
1311	H	0.692959	0.87584	0.70392
1312	H	0.824977	0.636155	0.703462
1313	H	0.70029	0.979977	0.670595
1314	H	0.817553	0.531939	0.670659
1315	C	0.661186	0.749571	0.672008
1316	N	0.647549	0.752937	0.966423
1317	C	0.61748	0.750984	0.963185
1318	C	0.599751	0.748818	0.669671
1319	N	0.614658	0.74812	0.708886
1320	C	0.643153	0.746714	0.712073
1321	H	0.610907	0.756512	0.932865
1322	C	0.655108	0.748749	0.752401
1323	N	0.665877	0.750838	0.787892
1324	C	0.765251	0.914615	0.672275
1325	N	0.761962	0.897809	0.966501
1326	C	0.763904	0.869706	0.962841
1327	C	0.766	0.853876	0.669033
1328	N	0.76653	0.86918	0.708498
1329	C	0.767884	0.899038	0.712073
1330	H	0.758379	0.857769	0.932406
1331	C	0.765716	0.908682	0.752522
1332	N	0.763504	0.917129	0.788115
1333	C	0.600372	0.853655	0.671907
1334	N	0.617227	0.867438	0.966281
1335	C	0.64533	0.897505	0.962986
1336	C	0.660954	0.915171	0.669421
1337	N	0.645573	0.900226	0.708744
1338	C	0.615726	0.871671	0.711975
1339	H	0.657338	0.904305	0.932612
1340	C	0.605937	0.859732	0.75235
1341	N	0.597367	0.848972	0.787872
1342	C	0.856578	0.762318	0.672315
1343	N	0.870204	0.759125	0.966578
1344	C	0.900233	0.761038	0.962955
1345	C	0.918164	0.763147	0.669141
1346	N	0.903336	0.763612	0.708582
1347	C	0.874815	0.764944	0.712103
1348	H	0.906835	0.755744	0.932494
1349	C	0.862999	0.762658	0.75258
1350	N	0.852335	0.76035	0.788192
1351	C	0.75272	0.59742	0.671894
1352	N	0.755826	0.614306	0.966288
1353	C	0.753848	0.642403	0.963013
1354	C	0.75178	0.657997	0.669465
1355	N	0.751313	0.642575	0.708761
1356	C	0.749949	0.612686	0.711982
1357	H	0.759081	0.654435	0.932656
1358	C	0.75225	0.60302	0.752364
1359	N	0.754568	0.594553	0.787899
1360	C	0.917565	0.658318	0.671722
1361	N	0.900669	0.644505	0.966153
1362	C	0.872647	0.614373	0.962854
1363	C	0.856879	0.596715	0.669273
1364	N	0.872411	0.611797	0.708494
1365	C	0.902317	0.640279	0.711793
1366	H	0.860531	0.607745	0.932554
1367	C	0.911919	0.652254	0.752192
1368	N	0.920321	0.663038	0.787737
