data_C432H576N216_2018-02-15_10:34:03
#******************************************
#
# CIF file created by Zeo++
# Zeo++ is an open source package to
# analyze microporous materials
#
#*******************************************

_cell_length_a		44.1891   
_cell_length_b		44.1891   
_cell_length_c		30.0166   
_cell_angle_alpha		90   
_cell_angle_beta		90   
_cell_angle_gamma		120   

_symmetry_space_group_name_H-M		'P1'
_symmetry_Int_Tables_number		1
_symmetry_cell_setting		Monoclinic

loop_
_symmetry_equiv_pos_as_xyz
'+x,+y,+z'

loop_
_atom_site_label
_atom_site_type_symbol
_atom_site_fract_x
_atom_site_fract_y
_atom_site_fract_z
1	C	0.182757	0.312497	0.968291
2	C	0.145933	0.296476	0.967907
3	C	0.129183	0.316547	0.968277
4	C	0.149988	0.353373	0.967907
5	C	0.186808	0.37012	0.968284
6	C	0.202829	0.349318	0.967904
7	H	0.138152	0.368205	0.967608
8	H	0.229498	0.361152	0.967618
9	H	0.1311	0.269807	0.967611
10	N	0.200056	0.292689	0.967814
11	H	0.183337	0.267316	0.958199
12	N	0.206617	0.407226	0.967811
13	H	0.23199	0.415881	0.958196
14	N	0.092078	0.299251	0.967804
15	H	0.083425	0.315969	0.958186
16	C	0.316395	0.186935	0.03109
17	C	0.353221	0.20297	0.031471
18	C	0.369987	0.182913	0.031095
19	C	0.349195	0.146087	0.031465
20	C	0.312373	0.129321	0.031086
21	C	0.296339	0.150113	0.031464
22	H	0.361042	0.131265	0.031772
23	H	0.269669	0.138266	0.031771
24	H	0.368042	0.229639	0.031777
25	N	0.299085	0.206732	0.031579
26	H	0.31581	0.232118	0.041134
27	N	0.292575	0.092214	0.031576
28	H	0.267189	0.083554	0.041129
29	N	0.407094	0.200223	0.031581
30	H	0.415754	0.183497	0.041135
31	C	0.236317	0.27272	0.007768
32	C	0.229989	0.245938	0.039191
33	C	0.240294	0.220849	0.028838
34	C	0.262766	0.226658	0.325027
35	C	0.26909	0.253437	0.293605
36	C	0.258808	0.278542	0.30397
37	N	0.227424	0.190647	0.053126
38	H	0.208308	0.183682	0.07398
39	H	0.231121	0.171695	0.044004
40	N	0.217593	0.246518	0.080845
41	H	0.2165	0.266694	0.091374
42	H	0.218036	0.231984	0.104734
43	N	0.281464	0.252863	0.251935
44	H	0.28254	0.232682	0.241384
45	H	0.281015	0.267405	0.228059
46	N	0.271702	0.308752	0.279678
47	H	0.268084	0.32771	0.289015
48	H	0.290895	0.315734	0.258955
49	C	0.282281	0.206843	0.321876
50	H	0.303334	0.218026	0.297336
51	H	0.263811	0.180189	0.311224
52	C	0.216786	0.29252	0.010886
53	H	0.235229	0.319163	0.021614
54	H	0.19569	0.281294	0.035364
55	C	0.226586	0.463457	0.007765
56	C	0.253367	0.48391	0.039189
57	C	0.278459	0.019305	0.028837
58	C	0.272651	0.035969	0.325025
59	C	0.245872	0.015514	0.293602
60	C	0.220764	0.480126	0.303967
61	N	0.308659	0.036637	0.053126
62	H	0.315623	0.024486	0.073981
63	H	0.32761	0.059287	0.044006
64	N	0.252787	0.470936	0.080843
65	H	0.232609	0.449665	0.091372
66	H	0.267319	0.485912	0.104733
67	N	0.246447	0.028463	0.251931
68	H	0.266629	0.049718	0.24138
69	H	0.231906	0.013471	0.228055
70	N	0.190556	0.462812	0.279673
71	H	0.171599	0.440237	0.28901
72	H	0.183576	0.475023	0.258949
73	C	0.292465	0.075298	0.321873
74	H	0.281286	0.085169	0.297332
75	H	0.319122	0.083482	0.311224
76	C	0.206786	0.424128	0.010883
77	H	0.180144	0.415928	0.02161
78	H	0.218013	0.414258	0.035362
79	C	0.035849	0.262992	0.007763
80	C	0.015396	0.269321	0.039186
81	C	0.480001	0.259015	0.028835
82	C	0.463338	0.236542	0.325026
83	C	0.483792	0.230217	0.293603
84	C	0.019179	0.240499	0.303967
85	N	0.462671	0.271887	0.053123
86	H	0.474821	0.291001	0.073976
87	H	0.440019	0.268186	0.044003
88	N	0.028373	0.28172	0.080839
89	H	0.049645	0.282815	0.091367
90	H	0.013398	0.281278	0.104729
91	N	0.470842	0.217841	0.251934
92	H	0.449584	0.216765	0.241383
93	H	0.485832	0.21829	0.228057
94	N	0.036494	0.227604	0.279674
95	H	0.05907	0.231223	0.289011
96	H	0.024282	0.208411	0.258953
97	C	0.424007	0.217026	0.321877
98	H	0.414137	0.195973	0.297338
99	H	0.415821	0.235495	0.311226
100	C	0.075179	0.282522	0.010879
101	H	0.083379	0.264081	0.021609
102	H	0.085051	0.303623	0.035354
103	C	0.182757	0.312497	0.301622
104	C	0.145933	0.296476	0.301241
105	C	0.129183	0.316547	0.301609
106	C	0.149988	0.353373	0.30124
107	C	0.186808	0.37012	0.301617
108	C	0.202829	0.349318	0.301238
109	H	0.138152	0.368205	0.300942
110	H	0.229498	0.361152	0.30095
111	H	0.1311	0.269807	0.300943
112	N	0.200056	0.292689	0.301147
113	H	0.183337	0.267316	0.291531
114	N	0.206617	0.407226	0.301144
115	H	0.23199	0.415881	0.291529
116	N	0.092078	0.299251	0.301137
117	H	0.083425	0.315969	0.29152
118	C	0.316395	0.186935	0.364425
119	C	0.353221	0.20297	0.364805
120	C	0.369987	0.182913	0.364428
121	C	0.349195	0.146087	0.364798
122	C	0.312373	0.129321	0.364422
123	C	0.296339	0.150113	0.364798
124	H	0.361042	0.131265	0.365105
125	H	0.269669	0.138266	0.365105
126	H	0.368042	0.229639	0.365111
127	N	0.299085	0.206732	0.364911
128	H	0.31581	0.232118	0.374466
129	N	0.292575	0.092214	0.364908
130	H	0.267189	0.083554	0.374463
131	N	0.407094	0.200223	0.364915
132	H	0.415754	0.183497	0.374469
133	C	0.236317	0.27272	0.341101
134	C	0.229989	0.245938	0.372524
135	C	0.240294	0.220849	0.362169
136	C	0.262766	0.226658	0.658359
137	C	0.26909	0.253437	0.62694
138	C	0.258808	0.278542	0.637304
139	N	0.227424	0.190647	0.386459
140	H	0.208308	0.183682	0.407314
141	H	0.231121	0.171695	0.377338
142	N	0.217593	0.246518	0.414177
143	H	0.2165	0.266694	0.424708
144	H	0.218036	0.231984	0.438067
145	N	0.281464	0.252863	0.585269
146	H	0.28254	0.232682	0.574718
147	H	0.281015	0.267405	0.561393
148	N	0.271702	0.308752	0.613011
149	H	0.268084	0.32771	0.622349
150	H	0.290895	0.315734	0.592289
151	C	0.282281	0.206843	0.655211
152	H	0.303334	0.218026	0.630671
153	H	0.263811	0.180189	0.644556
154	C	0.216786	0.29252	0.344219
155	H	0.235229	0.319163	0.354947
156	H	0.19569	0.281294	0.368699
157	C	0.226586	0.463457	0.341098
158	C	0.253367	0.48391	0.372524
159	C	0.278459	0.019305	0.362169
160	C	0.272651	0.035969	0.658359
161	C	0.245872	0.015514	0.626936
162	C	0.220764	0.480126	0.6373
163	N	0.308659	0.036637	0.386459
164	H	0.315623	0.024486	0.407314
165	H	0.32761	0.059287	0.377338
166	N	0.252787	0.470936	0.414177
167	H	0.232609	0.449665	0.424705
168	H	0.267319	0.485912	0.438067
169	N	0.246447	0.028463	0.585263
170	H	0.266629	0.049718	0.574715
171	H	0.231906	0.013471	0.561389
172	N	0.190556	0.462812	0.613007
173	H	0.171599	0.440237	0.622342
174	H	0.183576	0.475023	0.592282
175	C	0.292465	0.075298	0.655207
176	H	0.281286	0.085169	0.630664
177	H	0.319122	0.083482	0.644556
178	C	0.206786	0.424128	0.344216
179	H	0.180144	0.415928	0.354943
180	H	0.218013	0.414258	0.368696
181	C	0.035849	0.262992	0.341094
182	C	0.015396	0.269321	0.37252
183	C	0.480001	0.259015	0.362169
184	C	0.463338	0.236542	0.658359
185	C	0.483792	0.230217	0.626936
186	C	0.019179	0.240499	0.6373
187	N	0.462671	0.271887	0.386456
188	H	0.474821	0.291001	0.407311
189	H	0.440019	0.268186	0.377338
190	N	0.028373	0.28172	0.414171
191	H	0.049645	0.282815	0.424702
192	H	0.013398	0.281278	0.438061
193	N	0.470842	0.217841	0.585266
194	H	0.449584	0.216765	0.574718
195	H	0.485832	0.21829	0.561389
196	N	0.036494	0.227604	0.613007
197	H	0.05907	0.231223	0.622345
198	H	0.024282	0.208411	0.592285
199	C	0.424007	0.217026	0.655211
200	H	0.414137	0.195973	0.630671
201	H	0.415821	0.235495	0.64456
202	C	0.075179	0.282522	0.344213
203	H	0.083379	0.264081	0.354943
204	H	0.085051	0.303623	0.368689
205	C	0.182757	0.312497	0.634955
206	C	0.145933	0.296476	0.634575
207	C	0.129183	0.316547	0.634942
208	C	0.149988	0.353373	0.634575
209	C	0.186808	0.37012	0.634952
210	C	0.202829	0.349318	0.634572
211	H	0.138152	0.368205	0.634275
212	H	0.229498	0.361152	0.634282
213	H	0.1311	0.269807	0.634275
214	N	0.200056	0.292689	0.634479
215	H	0.183337	0.267316	0.624864
216	N	0.206617	0.407226	0.634479
217	H	0.23199	0.415881	0.624864
218	N	0.092078	0.299251	0.634472
219	H	0.083425	0.315969	0.624854
220	C	0.316395	0.186935	0.697757
221	C	0.353221	0.20297	0.698137
222	C	0.369987	0.182913	0.697764
223	C	0.349195	0.146087	0.698133
224	C	0.312373	0.129321	0.697754
225	C	0.296339	0.150113	0.69813
226	H	0.361042	0.131265	0.69844
227	H	0.269669	0.138266	0.698437
228	H	0.368042	0.229639	0.698443
229	N	0.299085	0.206732	0.698247
230	H	0.31581	0.232118	0.707801
231	N	0.292575	0.092214	0.698243
232	H	0.267189	0.083554	0.707795
233	N	0.407094	0.200223	0.698247
234	H	0.415754	0.183497	0.707801
235	C	0.236317	0.27272	0.674437
236	C	0.229989	0.245938	0.705859
237	C	0.240294	0.220849	0.695505
238	C	0.262766	0.226658	0.991694
239	C	0.26909	0.253437	0.960272
240	C	0.258808	0.278542	0.970636
241	N	0.227424	0.190647	0.719791
242	H	0.208308	0.183682	0.740647
243	H	0.231121	0.171695	0.71067
244	N	0.217593	0.246518	0.747513
245	H	0.2165	0.266694	0.75804
246	H	0.218036	0.231984	0.7714
247	N	0.281464	0.252863	0.918601
248	H	0.28254	0.232682	0.908051
249	H	0.281015	0.267405	0.894725
250	N	0.271702	0.308752	0.946346
251	H	0.268084	0.32771	0.955681
252	H	0.290895	0.315734	0.925621
253	C	0.282281	0.206843	0.988543
254	H	0.303334	0.218026	0.964003
255	H	0.263811	0.180189	0.977892
256	C	0.216786	0.29252	0.677555
257	H	0.235229	0.319163	0.688282
258	H	0.19569	0.281294	0.702031
259	C	0.226586	0.463457	0.674433
260	C	0.253367	0.48391	0.705856
261	C	0.278459	0.019305	0.695505
262	C	0.272651	0.035969	0.991691
263	C	0.245872	0.015514	0.960268
264	C	0.220764	0.480126	0.970633
265	N	0.308659	0.036637	0.719795
266	H	0.315623	0.024486	0.740647
267	H	0.32761	0.059287	0.710673
268	N	0.252787	0.470936	0.747509
269	H	0.232609	0.449665	0.75804
270	H	0.267319	0.485912	0.7714
271	N	0.246447	0.028463	0.918598
272	H	0.266629	0.049718	0.908047
273	H	0.231906	0.013471	0.894721
274	N	0.190556	0.462812	0.946339
275	H	0.171599	0.440237	0.955678
276	H	0.183576	0.475023	0.925618
277	C	0.292465	0.075298	0.988539
278	H	0.281286	0.085169	0.964
279	H	0.319122	0.083482	0.977892
280	C	0.206786	0.424128	0.677552
281	H	0.180144	0.415928	0.688276
282	H	0.218013	0.414258	0.702028
283	C	0.035849	0.262992	0.67443
284	C	0.015396	0.269321	0.705853
285	C	0.480001	0.259015	0.695502
286	C	0.463338	0.236542	0.991691
287	C	0.483792	0.230217	0.960268
288	C	0.019179	0.240499	0.970633
289	N	0.462671	0.271887	0.719791
290	H	0.474821	0.291001	0.740643
291	H	0.440019	0.268186	0.71067
292	N	0.028373	0.28172	0.747506
293	H	0.049645	0.282815	0.758034
294	H	0.013398	0.281278	0.771396
295	N	0.470842	0.217841	0.918601
296	H	0.449584	0.216765	0.908051
297	H	0.485832	0.21829	0.894725
298	N	0.036494	0.227604	0.946343
299	H	0.05907	0.231223	0.955678
300	H	0.024282	0.208411	0.925621
301	C	0.424007	0.217026	0.988543
302	H	0.414137	0.195973	0.964006
303	H	0.415821	0.235495	0.977892
304	C	0.075179	0.282522	0.677545
305	H	0.083379	0.264081	0.688276
306	H	0.085051	0.303623	0.702021
307	C	0.182757	0.812495	0.968291
308	C	0.145932	0.796475	0.967907
309	C	0.129184	0.816548	0.968277
310	C	0.149988	0.853372	0.967907
311	C	0.186809	0.870122	0.968284
312	C	0.202828	0.849316	0.967904
313	H	0.13815	0.868204	0.967608
314	H	0.229498	0.861154	0.967618
315	H	0.131099	0.769805	0.967611
316	N	0.200055	0.792688	0.967814
317	H	0.183336	0.767315	0.958199
318	N	0.206618	0.907228	0.967811
319	H	0.231989	0.91588	0.958196
320	N	0.092077	0.79925	0.967804
321	H	0.083423	0.815968	0.958186
322	C	0.316394	0.686934	0.03109
323	C	0.353221	0.70297	0.031471
324	C	0.369986	0.682912	0.031095
325	C	0.349194	0.646086	0.031465
326	C	0.312372	0.62932	0.031086
327	C	0.296338	0.650113	0.031464
328	H	0.361042	0.631265	0.031772
329	H	0.269668	0.638265	0.031771
330	H	0.368043	0.72964	0.031777
331	N	0.299083	0.706731	0.031579
332	H	0.315809	0.732117	0.041134
333	N	0.292574	0.592212	0.031576
334	H	0.267188	0.583552	0.041129
335	N	0.407093	0.700221	0.031581
336	H	0.415754	0.683498	0.041135
337	C	0.236316	0.772719	0.007768
338	C	0.229988	0.745937	0.039191
339	C	0.240293	0.720849	0.028838
340	C	0.262766	0.726658	0.325027
341	C	0.269089	0.753437	0.293605
342	C	0.258809	0.778544	0.30397
343	N	0.227423	0.690647	0.053126
344	H	0.208306	0.683681	0.07398
345	H	0.23112	0.671694	0.044004
346	N	0.217592	0.746518	0.080845
347	H	0.216498	0.766693	0.091374
348	H	0.218035	0.731984	0.104734
349	N	0.281463	0.752862	0.251935
350	H	0.282539	0.732681	0.241384
351	H	0.281014	0.767404	0.228059
352	N	0.271701	0.808751	0.279678
353	H	0.268083	0.827709	0.289015
354	H	0.290894	0.815733	0.258955
355	C	0.28228	0.706843	0.321876
356	H	0.303332	0.718024	0.297336
357	H	0.263811	0.680189	0.311224
358	C	0.216787	0.792521	0.010886
359	H	0.235228	0.819161	0.021614
360	H	0.195689	0.781292	0.035364
361	C	0.226585	0.963456	0.007765
362	C	0.253369	0.983911	0.039189
363	C	0.278457	0.519304	0.028837
364	C	0.27265	0.535968	0.325025
365	C	0.245871	0.515513	0.293602
366	C	0.220764	0.980125	0.303967
367	N	0.308659	0.536637	0.053126
368	H	0.315623	0.524486	0.073981
369	H	0.327611	0.559287	0.044006
370	N	0.252787	0.970935	0.080843
371	H	0.232608	0.949664	0.091372
372	H	0.267318	0.98591	0.104733
373	N	0.246448	0.528463	0.251931
374	H	0.266629	0.549718	0.24138
375	H	0.231905	0.513469	0.228055
376	N	0.190556	0.962811	0.279673
377	H	0.171598	0.940236	0.28901
378	H	0.183575	0.975022	0.258949
379	C	0.292465	0.575298	0.321873
380	H	0.281285	0.58517	0.297332
381	H	0.31912	0.583482	0.311224
382	C	0.206784	0.924127	0.010883
383	H	0.180144	0.915929	0.02161
384	H	0.218012	0.914257	0.035362
385	C	0.035848	0.76299	0.007763
386	C	0.015397	0.769322	0.039186
387	C	0.480001	0.759016	0.028835
388	C	0.463336	0.736541	0.325026
389	C	0.483791	0.730217	0.293603
390	C	0.019177	0.740497	0.303967
391	N	0.462669	0.771885	0.053123
392	H	0.474821	0.791003	0.073976
393	H	0.440018	0.768185	0.044003
394	N	0.028373	0.781718	0.080839
395	H	0.049643	0.782813	0.091367
396	H	0.013397	0.781277	0.104729
397	N	0.470841	0.717841	0.251934
398	H	0.449584	0.716765	0.241383
399	H	0.485831	0.718288	0.228057
400	N	0.036494	0.727604	0.279674
401	H	0.059069	0.731223	0.289011
402	H	0.024282	0.708411	0.258953
403	C	0.424007	0.717026	0.321877
404	H	0.414136	0.695973	0.297338
405	H	0.415821	0.735495	0.311226
406	C	0.075181	0.782523	0.010879
407	H	0.083377	0.76408	0.021609
408	H	0.085048	0.803621	0.035354
409	C	0.182757	0.812495	0.301622
410	C	0.145932	0.796475	0.301241
411	C	0.129184	0.816548	0.301609
412	C	0.149988	0.853372	0.30124
413	C	0.186809	0.870122	0.301617
414	C	0.202828	0.849316	0.301238
415	H	0.13815	0.868204	0.300942
416	H	0.229498	0.861154	0.30095
417	H	0.131099	0.769805	0.300943
418	N	0.200055	0.792688	0.301147
419	H	0.183336	0.767315	0.291531
420	N	0.206618	0.907228	0.301144
421	H	0.231989	0.91588	0.291529
422	N	0.092077	0.79925	0.301137
423	H	0.083423	0.815968	0.29152
424	C	0.316394	0.686934	0.364425
425	C	0.353221	0.70297	0.364805
426	C	0.369986	0.682912	0.364428
427	C	0.349194	0.646086	0.364798
428	C	0.312372	0.62932	0.364422
429	C	0.296338	0.650113	0.364798
430	H	0.361042	0.631265	0.365105
431	H	0.269668	0.638265	0.365105
432	H	0.368043	0.72964	0.365111
433	N	0.299083	0.706731	0.364911
434	H	0.315809	0.732117	0.374466
435	N	0.292574	0.592212	0.364908
436	H	0.267188	0.583552	0.374463
437	N	0.407093	0.700221	0.364915
438	H	0.415754	0.683498	0.374469
439	C	0.236316	0.772719	0.341101
440	C	0.229988	0.745937	0.372524
441	C	0.240293	0.720849	0.362169
442	C	0.262766	0.726658	0.658359
443	C	0.269089	0.753437	0.62694
444	C	0.258809	0.778544	0.637304
445	N	0.227423	0.690647	0.386459
446	H	0.208306	0.683681	0.407314
447	H	0.23112	0.671694	0.377338
448	N	0.217592	0.746518	0.414177
449	H	0.216498	0.766693	0.424708
450	H	0.218035	0.731984	0.438067
451	N	0.281463	0.752862	0.585269
452	H	0.282539	0.732681	0.574718
453	H	0.281014	0.767404	0.561393
454	N	0.271701	0.808751	0.613011
455	H	0.268083	0.827709	0.622349
456	H	0.290894	0.815733	0.592289
457	C	0.28228	0.706843	0.655211
458	H	0.303332	0.718024	0.630671
459	H	0.263811	0.680189	0.644556
460	C	0.216787	0.792521	0.344219
461	H	0.235228	0.819161	0.354947
462	H	0.195689	0.781292	0.368699
463	C	0.226585	0.963456	0.341098
464	C	0.253369	0.983911	0.372524
465	C	0.278457	0.519304	0.362169
466	C	0.27265	0.535968	0.658359
467	C	0.245871	0.515513	0.626936
468	C	0.220764	0.980125	0.6373
469	N	0.308659	0.536637	0.386459
470	H	0.315623	0.524486	0.407314
471	H	0.327611	0.559287	0.377338
472	N	0.252787	0.970935	0.414177
473	H	0.232608	0.949664	0.424705
474	H	0.267318	0.98591	0.438067
475	N	0.246448	0.528463	0.585263
476	H	0.266629	0.549718	0.574715
477	H	0.231905	0.513469	0.561389
478	N	0.190556	0.962811	0.613007
479	H	0.171598	0.940236	0.622342
480	H	0.183575	0.975022	0.592282
481	C	0.292465	0.575298	0.655207
482	H	0.281285	0.58517	0.630664
483	H	0.31912	0.583482	0.644556
484	C	0.206784	0.924127	0.344216
485	H	0.180144	0.915929	0.354943
486	H	0.218012	0.914257	0.368696
487	C	0.035848	0.76299	0.341094
488	C	0.015397	0.769322	0.37252
489	C	0.480001	0.759016	0.362169
490	C	0.463336	0.736541	0.658359
491	C	0.483791	0.730217	0.626936
492	C	0.019177	0.740497	0.6373
493	N	0.462669	0.771885	0.386456
494	H	0.474821	0.791003	0.407311
495	H	0.440018	0.768185	0.377338
496	N	0.028373	0.781718	0.414171
497	H	0.049643	0.782813	0.424702
498	H	0.013397	0.781277	0.438061
499	N	0.470841	0.717841	0.585266
500	H	0.449584	0.716765	0.574718
501	H	0.485831	0.718288	0.561389
502	N	0.036494	0.727604	0.613007
503	H	0.059069	0.731223	0.622345
504	H	0.024282	0.708411	0.592285
505	C	0.424007	0.717026	0.655211
506	H	0.414136	0.695973	0.630671
507	H	0.415821	0.735495	0.64456
508	C	0.075181	0.782523	0.344213
509	H	0.083377	0.76408	0.354943
510	H	0.085048	0.803621	0.368689
511	C	0.182757	0.812495	0.634955
512	C	0.145932	0.796475	0.634575
513	C	0.129184	0.816548	0.634942
514	C	0.149988	0.853372	0.634575
515	C	0.186809	0.870122	0.634952
516	C	0.202828	0.849316	0.634572
517	H	0.13815	0.868204	0.634275
518	H	0.229498	0.861154	0.634282
519	H	0.131099	0.769805	0.634275
520	N	0.200055	0.792688	0.634479
521	H	0.183336	0.767315	0.624864
522	N	0.206618	0.907228	0.634479
523	H	0.231989	0.91588	0.624864
524	N	0.092077	0.79925	0.634472
525	H	0.083423	0.815968	0.624854
526	C	0.316394	0.686934	0.697757
527	C	0.353221	0.70297	0.698137
528	C	0.369986	0.682912	0.697764
529	C	0.349194	0.646086	0.698133
530	C	0.312372	0.62932	0.697754
531	C	0.296338	0.650113	0.69813
532	H	0.361042	0.631265	0.69844
533	H	0.269668	0.638265	0.698437
534	H	0.368043	0.72964	0.698443
535	N	0.299083	0.706731	0.698247
536	H	0.315809	0.732117	0.707801
537	N	0.292574	0.592212	0.698243
538	H	0.267188	0.583552	0.707795
539	N	0.407093	0.700221	0.698247
540	H	0.415754	0.683498	0.707801
541	C	0.236316	0.772719	0.674437
542	C	0.229988	0.745937	0.705859
543	C	0.240293	0.720849	0.695505
544	C	0.262766	0.726658	0.991694
545	C	0.269089	0.753437	0.960272
546	C	0.258809	0.778544	0.970636
547	N	0.227423	0.690647	0.719791
548	H	0.208306	0.683681	0.740647
549	H	0.23112	0.671694	0.71067
550	N	0.217592	0.746518	0.747513
551	H	0.216498	0.766693	0.75804
552	H	0.218035	0.731984	0.7714
553	N	0.281463	0.752862	0.918601
554	H	0.282539	0.732681	0.908051
555	H	0.281014	0.767404	0.894725
556	N	0.271701	0.808751	0.946346
557	H	0.268083	0.827709	0.955681
558	H	0.290894	0.815733	0.925621
559	C	0.28228	0.706843	0.988543
560	H	0.303332	0.718024	0.964003
561	H	0.263811	0.680189	0.977892
562	C	0.216787	0.792521	0.677555
563	H	0.235228	0.819161	0.688282
564	H	0.195689	0.781292	0.702031
565	C	0.226585	0.963456	0.674433
566	C	0.253369	0.983911	0.705856
567	C	0.278457	0.519304	0.695505
568	C	0.27265	0.535968	0.991691
569	C	0.245871	0.515513	0.960268
570	C	0.220764	0.980125	0.970633
571	N	0.308659	0.536637	0.719795
572	H	0.315623	0.524486	0.740647
573	H	0.327611	0.559287	0.710673
574	N	0.252787	0.970935	0.747509
575	H	0.232608	0.949664	0.75804
576	H	0.267318	0.98591	0.7714
577	N	0.246448	0.528463	0.918598
578	H	0.266629	0.549718	0.908047
579	H	0.231905	0.513469	0.894721
580	N	0.190556	0.962811	0.946339
581	H	0.171598	0.940236	0.955678
582	H	0.183575	0.975022	0.925618
583	C	0.292465	0.575298	0.988539
584	H	0.281285	0.58517	0.964
585	H	0.31912	0.583482	0.977892
586	C	0.206784	0.924127	0.677552
587	H	0.180144	0.915929	0.688276
588	H	0.218012	0.914257	0.702028
589	C	0.035848	0.76299	0.67443
590	C	0.015397	0.769322	0.705853
591	C	0.480001	0.759016	0.695502
592	C	0.463336	0.736541	0.991691
593	C	0.483791	0.730217	0.960268
594	C	0.019177	0.740497	0.970633
595	N	0.462669	0.771885	0.719791
596	H	0.474821	0.791003	0.740643
597	H	0.440018	0.768185	0.71067
598	N	0.028373	0.781718	0.747506
599	H	0.049643	0.782813	0.758034
600	H	0.013397	0.781277	0.771396
601	N	0.470841	0.717841	0.918601
602	H	0.449584	0.716765	0.908051
603	H	0.485831	0.718288	0.894725
604	N	0.036494	0.727604	0.946343
605	H	0.059069	0.731223	0.955678
606	H	0.024282	0.708411	0.925621
607	C	0.424007	0.717026	0.988543
608	H	0.414136	0.695973	0.964006
609	H	0.415821	0.735495	0.977892
610	C	0.075181	0.782523	0.677545
611	H	0.083377	0.76408	0.688276
612	H	0.085048	0.803621	0.702021
613	C	0.682758	0.312497	0.968291
614	C	0.645933	0.296476	0.967907
615	C	0.629183	0.316547	0.968277
616	C	0.649988	0.353373	0.967907
617	C	0.686808	0.37012	0.968284
618	C	0.702829	0.349318	0.967904
619	H	0.638151	0.368205	0.967608
620	H	0.729496	0.361152	0.967618
621	H	0.6311	0.269807	0.967611
622	N	0.700056	0.292689	0.967814
623	H	0.683336	0.267316	0.958199
624	N	0.706617	0.407226	0.967811
625	H	0.73199	0.415881	0.958196
626	N	0.592078	0.299251	0.967804
627	H	0.583424	0.315969	0.958186
628	C	0.816394	0.186935	0.03109
629	C	0.85322	0.20297	0.031471
630	C	0.869985	0.182913	0.031095
631	C	0.849194	0.146087	0.031465
632	C	0.812372	0.129321	0.031086
633	C	0.796338	0.150113	0.031464
634	H	0.861041	0.131265	0.031772
635	H	0.76967	0.138266	0.031771
636	H	0.868044	0.229639	0.031777
637	N	0.799085	0.206732	0.031579
638	H	0.815811	0.232118	0.041134
639	N	0.792576	0.092214	0.031576
640	H	0.767189	0.083554	0.041129
641	N	0.907093	0.200223	0.031581
642	H	0.915755	0.183497	0.041135
643	C	0.736318	0.27272	0.007768
644	C	0.729987	0.245938	0.039191
645	C	0.740292	0.220849	0.028838
646	C	0.762765	0.226658	0.325027
647	C	0.76909	0.253437	0.293605
648	C	0.758808	0.278542	0.30397
649	N	0.727423	0.190647	0.053126
650	H	0.708307	0.183682	0.07398
651	H	0.731122	0.171695	0.044004
652	N	0.717593	0.246518	0.080845
653	H	0.7165	0.266694	0.091374
654	H	0.718036	0.231984	0.104734
655	N	0.781464	0.252863	0.251935
656	H	0.782539	0.232682	0.241384
657	H	0.781013	0.267405	0.228059
658	N	0.771702	0.308752	0.279678
659	H	0.768083	0.32771	0.289015
660	H	0.790894	0.315734	0.258955
661	C	0.782281	0.206843	0.321876
662	H	0.803333	0.218026	0.297336
663	H	0.76381	0.180189	0.311224
664	C	0.716787	0.29252	0.010886
665	H	0.73523	0.319163	0.021614
666	H	0.695691	0.281294	0.035364
667	C	0.726585	0.463457	0.007765
668	C	0.753368	0.48391	0.039189
669	C	0.778457	0.019305	0.028837
670	C	0.77265	0.035969	0.325025
671	C	0.745871	0.015514	0.293602
672	C	0.720765	0.480126	0.303967
673	N	0.808658	0.036637	0.053126
674	H	0.815622	0.024486	0.073981
675	H	0.827611	0.059287	0.044006
676	N	0.752787	0.470936	0.080843
677	H	0.732609	0.449665	0.091372
678	H	0.76732	0.485912	0.104733
679	N	0.746448	0.028463	0.251931
680	H	0.766628	0.049718	0.24138
681	H	0.731905	0.013471	0.228055
682	N	0.690557	0.462812	0.279673
683	H	0.671598	0.440237	0.28901
684	H	0.683576	0.475023	0.258949
685	C	0.792466	0.075298	0.321873
686	H	0.781285	0.085169	0.297332
687	H	0.819121	0.083482	0.311224
688	C	0.706785	0.424128	0.010883
689	H	0.680143	0.415928	0.02161
690	H	0.718012	0.414258	0.035362
691	C	0.535849	0.262992	0.007763
692	C	0.515396	0.269321	0.039186
693	C	0.980002	0.259015	0.028835
694	C	0.963336	0.236542	0.325026
695	C	0.983791	0.230217	0.293603
696	C	0.519178	0.240499	0.303967
697	N	0.962669	0.271887	0.053123
698	H	0.97482	0.291001	0.073976
699	H	0.940018	0.268186	0.044003
700	N	0.528374	0.28172	0.080839
701	H	0.549643	0.282815	0.091367
702	H	0.513398	0.281278	0.104729
703	N	0.970841	0.217841	0.251934
704	H	0.949585	0.216765	0.241383
705	H	0.985831	0.21829	0.228057
706	N	0.536494	0.227604	0.279674
707	H	0.559069	0.231223	0.289011
708	H	0.524282	0.208411	0.258953
709	C	0.924008	0.217026	0.321877
710	H	0.914135	0.195973	0.297338
711	H	0.915822	0.235495	0.311226
712	C	0.57518	0.282522	0.010879
713	H	0.583378	0.264081	0.021609
714	H	0.585049	0.303623	0.035354
715	C	0.682758	0.312497	0.301622
716	C	0.645933	0.296476	0.301241
717	C	0.629183	0.316547	0.301609
718	C	0.649988	0.353373	0.30124
719	C	0.686808	0.37012	0.301617
720	C	0.702829	0.349318	0.301238
721	H	0.638151	0.368205	0.300942
722	H	0.729496	0.361152	0.30095
723	H	0.6311	0.269807	0.300943
724	N	0.700056	0.292689	0.301147
725	H	0.683336	0.267316	0.291531
726	N	0.706617	0.407226	0.301144
727	H	0.73199	0.415881	0.291529
728	N	0.592078	0.299251	0.301137
729	H	0.583424	0.315969	0.29152
730	C	0.816394	0.186935	0.364425
731	C	0.85322	0.20297	0.364805
732	C	0.869985	0.182913	0.364428
733	C	0.849194	0.146087	0.364798
734	C	0.812372	0.129321	0.364422
735	C	0.796338	0.150113	0.364798
736	H	0.861041	0.131265	0.365105
737	H	0.76967	0.138266	0.365105
738	H	0.868044	0.229639	0.365111
739	N	0.799085	0.206732	0.364911
740	H	0.815811	0.232118	0.374466
741	N	0.792576	0.092214	0.364908
742	H	0.767189	0.083554	0.374463
743	N	0.907093	0.200223	0.364915
744	H	0.915755	0.183497	0.374469
745	C	0.736318	0.27272	0.341101
746	C	0.729987	0.245938	0.372524
747	C	0.740292	0.220849	0.362169
748	C	0.762765	0.226658	0.658359
749	C	0.76909	0.253437	0.62694
750	C	0.758808	0.278542	0.637304
751	N	0.727423	0.190647	0.386459
752	H	0.708307	0.183682	0.407314
753	H	0.731122	0.171695	0.377338
754	N	0.717593	0.246518	0.414177
755	H	0.7165	0.266694	0.424708
756	H	0.718036	0.231984	0.438067
757	N	0.781464	0.252863	0.585269
758	H	0.782539	0.232682	0.574718
759	H	0.781013	0.267405	0.561393
760	N	0.771702	0.308752	0.613011
761	H	0.768083	0.32771	0.622349
762	H	0.790894	0.315734	0.592289
763	C	0.782281	0.206843	0.655211
764	H	0.803333	0.218026	0.630671
765	H	0.76381	0.180189	0.644556
766	C	0.716787	0.29252	0.344219
767	H	0.73523	0.319163	0.354947
768	H	0.695691	0.281294	0.368699
769	C	0.726585	0.463457	0.341098
770	C	0.753368	0.48391	0.372524
771	C	0.778457	0.019305	0.362169
772	C	0.77265	0.035969	0.658359
773	C	0.745871	0.015514	0.626936
774	C	0.720765	0.480126	0.6373
775	N	0.808658	0.036637	0.386459
776	H	0.815622	0.024486	0.407314
777	H	0.827611	0.059287	0.377338
778	N	0.752787	0.470936	0.414177
779	H	0.732609	0.449665	0.424705
780	H	0.76732	0.485912	0.438067
781	N	0.746448	0.028463	0.585263
782	H	0.766628	0.049718	0.574715
783	H	0.731905	0.013471	0.561389
784	N	0.690557	0.462812	0.613007
785	H	0.671598	0.440237	0.622342
786	H	0.683576	0.475023	0.592282
787	C	0.792466	0.075298	0.655207
788	H	0.781285	0.085169	0.630664
789	H	0.819121	0.083482	0.644556
790	C	0.706785	0.424128	0.344216
791	H	0.680143	0.415928	0.354943
792	H	0.718012	0.414258	0.368696
793	C	0.535849	0.262992	0.341094
794	C	0.515396	0.269321	0.37252
795	C	0.980002	0.259015	0.362169
796	C	0.963336	0.236542	0.658359
797	C	0.983791	0.230217	0.626936
798	C	0.519178	0.240499	0.6373
799	N	0.962669	0.271887	0.386456
800	H	0.97482	0.291001	0.407311
801	H	0.940018	0.268186	0.377338
802	N	0.528374	0.28172	0.414171
803	H	0.549643	0.282815	0.424702
804	H	0.513398	0.281278	0.438061
805	N	0.970841	0.217841	0.585266
806	H	0.949585	0.216765	0.574718
807	H	0.985831	0.21829	0.561389
808	N	0.536494	0.227604	0.613007
809	H	0.559069	0.231223	0.622345
810	H	0.524282	0.208411	0.592285
811	C	0.924008	0.217026	0.655211
812	H	0.914135	0.195973	0.630671
813	H	0.915822	0.235495	0.64456
814	C	0.57518	0.282522	0.344213
815	H	0.583378	0.264081	0.354943
816	H	0.585049	0.303623	0.368689
817	C	0.682758	0.312497	0.634955
818	C	0.645933	0.296476	0.634575
819	C	0.629183	0.316547	0.634942
820	C	0.649988	0.353373	0.634575
821	C	0.686808	0.37012	0.634952
822	C	0.702829	0.349318	0.634572
823	H	0.638151	0.368205	0.634275
824	H	0.729496	0.361152	0.634282
825	H	0.6311	0.269807	0.634275
826	N	0.700056	0.292689	0.634479
827	H	0.683336	0.267316	0.624864
828	N	0.706617	0.407226	0.634479
829	H	0.73199	0.415881	0.624864
830	N	0.592078	0.299251	0.634472
831	H	0.583424	0.315969	0.624854
832	C	0.816394	0.186935	0.697757
833	C	0.85322	0.20297	0.698137
834	C	0.869985	0.182913	0.697764
835	C	0.849194	0.146087	0.698133
836	C	0.812372	0.129321	0.697754
837	C	0.796338	0.150113	0.69813
838	H	0.861041	0.131265	0.69844
839	H	0.76967	0.138266	0.698437
840	H	0.868044	0.229639	0.698443
841	N	0.799085	0.206732	0.698247
842	H	0.815811	0.232118	0.707801
843	N	0.792576	0.092214	0.698243
844	H	0.767189	0.083554	0.707795
845	N	0.907093	0.200223	0.698247
846	H	0.915755	0.183497	0.707801
847	C	0.736318	0.27272	0.674437
848	C	0.729987	0.245938	0.705859
849	C	0.740292	0.220849	0.695505
850	C	0.762765	0.226658	0.991694
851	C	0.76909	0.253437	0.960272
852	C	0.758808	0.278542	0.970636
853	N	0.727423	0.190647	0.719791
854	H	0.708307	0.183682	0.740647
855	H	0.731122	0.171695	0.71067
856	N	0.717593	0.246518	0.747513
857	H	0.7165	0.266694	0.75804
858	H	0.718036	0.231984	0.7714
859	N	0.781464	0.252863	0.918601
860	H	0.782539	0.232682	0.908051
861	H	0.781013	0.267405	0.894725
862	N	0.771702	0.308752	0.946346
863	H	0.768083	0.32771	0.955681
864	H	0.790894	0.315734	0.925621
865	C	0.782281	0.206843	0.988543
866	H	0.803333	0.218026	0.964003
867	H	0.76381	0.180189	0.977892
868	C	0.716787	0.29252	0.677555
869	H	0.73523	0.319163	0.688282
870	H	0.695691	0.281294	0.702031
871	C	0.726585	0.463457	0.674433
872	C	0.753368	0.48391	0.705856
873	C	0.778457	0.019305	0.695505
874	C	0.77265	0.035969	0.991691
875	C	0.745871	0.015514	0.960268
876	C	0.720765	0.480126	0.970633
877	N	0.808658	0.036637	0.719795
878	H	0.815622	0.024486	0.740647
879	H	0.827611	0.059287	0.710673
880	N	0.752787	0.470936	0.747509
881	H	0.732609	0.449665	0.75804
882	H	0.76732	0.485912	0.7714
883	N	0.746448	0.028463	0.918598
884	H	0.766628	0.049718	0.908047
885	H	0.731905	0.013471	0.894721
886	N	0.690557	0.462812	0.946339
887	H	0.671598	0.440237	0.955678
888	H	0.683576	0.475023	0.925618
889	C	0.792466	0.075298	0.988539
890	H	0.781285	0.085169	0.964
891	H	0.819121	0.083482	0.977892
892	C	0.706785	0.424128	0.677552
893	H	0.680143	0.415928	0.688276
894	H	0.718012	0.414258	0.702028
895	C	0.535849	0.262992	0.67443
896	C	0.515396	0.269321	0.705853
897	C	0.980002	0.259015	0.695502
898	C	0.963336	0.236542	0.991691
899	C	0.983791	0.230217	0.960268
900	C	0.519178	0.240499	0.970633
901	N	0.962669	0.271887	0.719791
902	H	0.97482	0.291001	0.740643
903	H	0.940018	0.268186	0.71067
904	N	0.528374	0.28172	0.747506
905	H	0.549643	0.282815	0.758034
906	H	0.513398	0.281278	0.771396
907	N	0.970841	0.217841	0.918601
908	H	0.949585	0.216765	0.908051
909	H	0.985831	0.21829	0.894725
910	N	0.536494	0.227604	0.946343
911	H	0.559069	0.231223	0.955678
912	H	0.524282	0.208411	0.925621
913	C	0.924008	0.217026	0.988543
914	H	0.914135	0.195973	0.964006
915	H	0.915822	0.235495	0.977892
916	C	0.57518	0.282522	0.677545
917	H	0.583378	0.264081	0.688276
918	H	0.585049	0.303623	0.702021
919	C	0.682756	0.812495	0.968291
920	C	0.645931	0.796475	0.967907
921	C	0.629183	0.816548	0.968277
922	C	0.649987	0.853372	0.967907
923	C	0.686808	0.870122	0.968284
924	C	0.702828	0.849316	0.967904
925	H	0.63815	0.868204	0.967608
926	H	0.729498	0.861154	0.967618
927	H	0.631098	0.769805	0.967611
928	N	0.700054	0.792688	0.967814
929	H	0.683335	0.767315	0.958199
930	N	0.706616	0.907228	0.967811
931	H	0.731988	0.91588	0.958196
932	N	0.592077	0.79925	0.967804
933	H	0.583423	0.815968	0.958186
934	C	0.816393	0.686934	0.03109
935	C	0.853221	0.70297	0.031471
936	C	0.869986	0.682912	0.031095
937	C	0.849195	0.646086	0.031465
938	C	0.812373	0.62932	0.031086
939	C	0.796337	0.650113	0.031464
940	H	0.861042	0.631265	0.031772
941	H	0.769668	0.638265	0.031771
942	H	0.868043	0.72964	0.031777
943	N	0.799083	0.706731	0.031579
944	H	0.815809	0.732117	0.041134
945	N	0.792574	0.592212	0.031576
946	H	0.767187	0.583552	0.041129
947	N	0.907093	0.700221	0.031581
948	H	0.915754	0.683498	0.041135
949	C	0.736316	0.772719	0.007768
950	C	0.729988	0.745937	0.039191
951	C	0.740293	0.720849	0.028838
952	C	0.762766	0.726658	0.325027
953	C	0.769088	0.753437	0.293605
954	C	0.758808	0.778544	0.30397
955	N	0.727424	0.690647	0.053126
956	H	0.708305	0.683681	0.07398
957	H	0.73112	0.671694	0.044004
958	N	0.717592	0.746518	0.080845
959	H	0.716498	0.766693	0.091374
960	H	0.718035	0.731984	0.104734
961	N	0.781462	0.752862	0.251935
962	H	0.782537	0.732681	0.241384
963	H	0.781014	0.767404	0.228059
964	N	0.7717	0.808751	0.279678
965	H	0.768083	0.827709	0.289015
966	H	0.790892	0.815733	0.258955
967	C	0.78228	0.706843	0.321876
968	H	0.803331	0.718024	0.297336
969	H	0.763812	0.680189	0.311224
970	C	0.716787	0.792521	0.010886
971	H	0.735228	0.819161	0.021614
972	H	0.695689	0.781292	0.035364
973	C	0.726584	0.963456	0.007765
974	C	0.753367	0.983911	0.039189
975	C	0.778456	0.519304	0.028837
976	C	0.772649	0.535968	0.325025
977	C	0.745872	0.515513	0.293602
978	C	0.720763	0.980125	0.303967
979	N	0.808659	0.536637	0.053126
980	H	0.815623	0.524486	0.073981
981	H	0.827611	0.559287	0.044006
982	N	0.752786	0.970935	0.080843
983	H	0.732607	0.949664	0.091372
984	H	0.767318	0.98591	0.104733
985	N	0.746447	0.528463	0.251931
986	H	0.766629	0.549718	0.24138
987	H	0.731903	0.513469	0.228055
988	N	0.690555	0.962811	0.279673
989	H	0.671598	0.940236	0.28901
990	H	0.683574	0.975022	0.258949
991	C	0.792465	0.575298	0.321873
992	H	0.781284	0.58517	0.297332
993	H	0.819119	0.583482	0.311224
994	C	0.706783	0.924127	0.010883
995	H	0.680143	0.915929	0.02161
996	H	0.718011	0.914257	0.035362
997	C	0.535847	0.76299	0.007763
998	C	0.515396	0.769322	0.039186
999	C	0.980001	0.759016	0.028835
1000	C	0.963335	0.736541	0.325026
1001	C	0.98379	0.730217	0.293603
1002	C	0.519177	0.740497	0.303967
1003	N	0.962668	0.771885	0.053123
1004	H	0.97482	0.791003	0.073976
1005	H	0.940018	0.768185	0.044003
1006	N	0.528372	0.781718	0.080839
1007	H	0.549643	0.782813	0.091367
1008	H	0.513397	0.781277	0.104729
1009	N	0.97084	0.717841	0.251934
1010	H	0.949584	0.716765	0.241383
1011	H	0.985832	0.718288	0.228057
1012	N	0.536493	0.727604	0.279674
1013	H	0.559069	0.731223	0.289011
1014	H	0.524282	0.708411	0.258953
1015	C	0.924007	0.717026	0.321877
1016	H	0.914136	0.695973	0.297338
1017	H	0.915821	0.735495	0.311226
1018	C	0.575179	0.782523	0.010879
1019	H	0.583378	0.76408	0.021609
1020	H	0.585049	0.803621	0.035354
1021	C	0.682756	0.812495	0.301622
1022	C	0.645931	0.796475	0.301241
1023	C	0.629183	0.816548	0.301609
1024	C	0.649987	0.853372	0.30124
1025	C	0.686808	0.870122	0.301617
1026	C	0.702828	0.849316	0.301238
1027	H	0.63815	0.868204	0.300942
1028	H	0.729498	0.861154	0.30095
1029	H	0.631098	0.769805	0.300943
1030	N	0.700054	0.792688	0.301147
1031	H	0.683335	0.767315	0.291531
1032	N	0.706616	0.907228	0.301144
1033	H	0.731988	0.91588	0.291529
1034	N	0.592077	0.79925	0.301137
1035	H	0.583423	0.815968	0.29152
1036	C	0.816393	0.686934	0.364425
1037	C	0.853221	0.70297	0.364805
1038	C	0.869986	0.682912	0.364428
1039	C	0.849195	0.646086	0.364798
1040	C	0.812373	0.62932	0.364422
1041	C	0.796337	0.650113	0.364798
1042	H	0.861042	0.631265	0.365105
1043	H	0.769668	0.638265	0.365105
1044	H	0.868043	0.72964	0.365111
1045	N	0.799083	0.706731	0.364911
1046	H	0.815809	0.732117	0.374466
1047	N	0.792574	0.592212	0.364908
1048	H	0.767187	0.583552	0.374463
1049	N	0.907093	0.700221	0.364915
1050	H	0.915754	0.683498	0.374469
1051	C	0.736316	0.772719	0.341101
1052	C	0.729988	0.745937	0.372524
1053	C	0.740293	0.720849	0.362169
1054	C	0.762766	0.726658	0.658359
1055	C	0.769088	0.753437	0.62694
1056	C	0.758808	0.778544	0.637304
1057	N	0.727424	0.690647	0.386459
1058	H	0.708305	0.683681	0.407314
1059	H	0.73112	0.671694	0.377338
1060	N	0.717592	0.746518	0.414177
1061	H	0.716498	0.766693	0.424708
1062	H	0.718035	0.731984	0.438067
1063	N	0.781462	0.752862	0.585269
1064	H	0.782537	0.732681	0.574718
1065	H	0.781014	0.767404	0.561393
1066	N	0.7717	0.808751	0.613011
1067	H	0.768083	0.827709	0.622349
1068	H	0.790892	0.815733	0.592289
1069	C	0.78228	0.706843	0.655211
1070	H	0.803331	0.718024	0.630671
1071	H	0.763812	0.680189	0.644556
1072	C	0.716787	0.792521	0.344219
1073	H	0.735228	0.819161	0.354947
1074	H	0.695689	0.781292	0.368699
1075	C	0.726584	0.963456	0.341098
1076	C	0.753367	0.983911	0.372524
1077	C	0.778456	0.519304	0.362169
1078	C	0.772649	0.535968	0.658359
1079	C	0.745872	0.515513	0.626936
1080	C	0.720763	0.980125	0.6373
1081	N	0.808659	0.536637	0.386459
1082	H	0.815623	0.524486	0.407314
1083	H	0.827611	0.559287	0.377338
1084	N	0.752786	0.970935	0.414177
1085	H	0.732607	0.949664	0.424705
1086	H	0.767318	0.98591	0.438067
1087	N	0.746447	0.528463	0.585263
1088	H	0.766629	0.549718	0.574715
1089	H	0.731903	0.513469	0.561389
1090	N	0.690555	0.962811	0.613007
1091	H	0.671598	0.940236	0.622342
1092	H	0.683574	0.975022	0.592282
1093	C	0.792465	0.575298	0.655207
1094	H	0.781284	0.58517	0.630664
1095	H	0.819119	0.583482	0.644556
1096	C	0.706783	0.924127	0.344216
1097	H	0.680143	0.915929	0.354943
1098	H	0.718011	0.914257	0.368696
1099	C	0.535847	0.76299	0.341094
1100	C	0.515396	0.769322	0.37252
1101	C	0.980001	0.759016	0.362169
1102	C	0.963335	0.736541	0.658359
1103	C	0.98379	0.730217	0.626936
1104	C	0.519177	0.740497	0.6373
1105	N	0.962668	0.771885	0.386456
1106	H	0.97482	0.791003	0.407311
1107	H	0.940018	0.768185	0.377338
1108	N	0.528372	0.781718	0.414171
1109	H	0.549643	0.782813	0.424702
1110	H	0.513397	0.781277	0.438061
1111	N	0.97084	0.717841	0.585266
1112	H	0.949584	0.716765	0.574718
1113	H	0.985832	0.718288	0.561389
1114	N	0.536493	0.727604	0.613007
1115	H	0.559069	0.731223	0.622345
1116	H	0.524282	0.708411	0.592285
1117	C	0.924007	0.717026	0.655211
1118	H	0.914136	0.695973	0.630671
1119	H	0.915821	0.735495	0.64456
1120	C	0.575179	0.782523	0.344213
1121	H	0.583378	0.76408	0.354943
1122	H	0.585049	0.803621	0.368689
1123	C	0.682756	0.812495	0.634955
1124	C	0.645931	0.796475	0.634575
1125	C	0.629183	0.816548	0.634942
1126	C	0.649987	0.853372	0.634575
1127	C	0.686808	0.870122	0.634952
1128	C	0.702828	0.849316	0.634572
1129	H	0.63815	0.868204	0.634275
1130	H	0.729498	0.861154	0.634282
1131	H	0.631098	0.769805	0.634275
1132	N	0.700054	0.792688	0.634479
1133	H	0.683335	0.767315	0.624864
1134	N	0.706616	0.907228	0.634479
1135	H	0.731988	0.91588	0.624864
1136	N	0.592077	0.79925	0.634472
1137	H	0.583423	0.815968	0.624854
1138	C	0.816393	0.686934	0.697757
1139	C	0.853221	0.70297	0.698137
1140	C	0.869986	0.682912	0.697764
1141	C	0.849195	0.646086	0.698133
1142	C	0.812373	0.62932	0.697754
1143	C	0.796337	0.650113	0.69813
1144	H	0.861042	0.631265	0.69844
1145	H	0.769668	0.638265	0.698437
1146	H	0.868043	0.72964	0.698443
1147	N	0.799083	0.706731	0.698247
1148	H	0.815809	0.732117	0.707801
1149	N	0.792574	0.592212	0.698243
1150	H	0.767187	0.583552	0.707795
1151	N	0.907093	0.700221	0.698247
1152	H	0.915754	0.683498	0.707801
1153	C	0.736316	0.772719	0.674437
1154	C	0.729988	0.745937	0.705859
1155	C	0.740293	0.720849	0.695505
1156	C	0.762766	0.726658	0.991694
1157	C	0.769088	0.753437	0.960272
1158	C	0.758808	0.778544	0.970636
1159	N	0.727424	0.690647	0.719791
1160	H	0.708305	0.683681	0.740647
1161	H	0.73112	0.671694	0.71067
1162	N	0.717592	0.746518	0.747513
1163	H	0.716498	0.766693	0.75804
1164	H	0.718035	0.731984	0.7714
1165	N	0.781462	0.752862	0.918601
1166	H	0.782537	0.732681	0.908051
1167	H	0.781014	0.767404	0.894725
1168	N	0.7717	0.808751	0.946346
1169	H	0.768083	0.827709	0.955681
1170	H	0.790892	0.815733	0.925621
1171	C	0.78228	0.706843	0.988543
1172	H	0.803331	0.718024	0.964003
1173	H	0.763812	0.680189	0.977892
1174	C	0.716787	0.792521	0.677555
1175	H	0.735228	0.819161	0.688282
1176	H	0.695689	0.781292	0.702031
1177	C	0.726584	0.963456	0.674433
1178	C	0.753367	0.983911	0.705856
1179	C	0.778456	0.519304	0.695505
1180	C	0.772649	0.535968	0.991691
1181	C	0.745872	0.515513	0.960268
1182	C	0.720763	0.980125	0.970633
1183	N	0.808659	0.536637	0.719795
1184	H	0.815623	0.524486	0.740647
1185	H	0.827611	0.559287	0.710673
1186	N	0.752786	0.970935	0.747509
1187	H	0.732607	0.949664	0.75804
1188	H	0.767318	0.98591	0.7714
1189	N	0.746447	0.528463	0.918598
1190	H	0.766629	0.549718	0.908047
1191	H	0.731903	0.513469	0.894721
1192	N	0.690555	0.962811	0.946339
1193	H	0.671598	0.940236	0.955678
1194	H	0.683574	0.975022	0.925618
1195	C	0.792465	0.575298	0.988539
1196	H	0.781284	0.58517	0.964
1197	H	0.819119	0.583482	0.977892
1198	C	0.706783	0.924127	0.677552
1199	H	0.680143	0.915929	0.688276
1200	H	0.718011	0.914257	0.702028
1201	C	0.535847	0.76299	0.67443
1202	C	0.515396	0.769322	0.705853
1203	C	0.980001	0.759016	0.695502
1204	C	0.963335	0.736541	0.991691
1205	C	0.98379	0.730217	0.960268
1206	C	0.519177	0.740497	0.970633
1207	N	0.962668	0.771885	0.719791
1208	H	0.97482	0.791003	0.740643
1209	H	0.940018	0.768185	0.71067
1210	N	0.528372	0.781718	0.747506
1211	H	0.549643	0.782813	0.758034
1212	H	0.513397	0.781277	0.771396
1213	N	0.97084	0.717841	0.918601
1214	H	0.949584	0.716765	0.908051
1215	H	0.985832	0.718288	0.894725
1216	N	0.536493	0.727604	0.946343
1217	H	0.559069	0.731223	0.955678
1218	H	0.524282	0.708411	0.925621
1219	C	0.924007	0.717026	0.988543
1220	H	0.914136	0.695973	0.964006
1221	H	0.915821	0.735495	0.977892
1222	C	0.575179	0.782523	0.677545
1223	H	0.583378	0.76408	0.688276
1224	H	0.585049	0.803621	0.702021
