data_C432H288N144O108_2018-02-15_10:32:47
#******************************************
#
# CIF file created by Zeo++
# Zeo++ is an open source package to
# analyze microporous materials
#
#*******************************************

_cell_length_a		43.6686   
_cell_length_b		43.6686   
_cell_length_c		30.1736   
_cell_angle_alpha		90   
_cell_angle_beta		90   
_cell_angle_gamma		120   

_symmetry_space_group_name_H-M		'P1'
_symmetry_Int_Tables_number		1
_symmetry_cell_setting		Monoclinic

loop_
_symmetry_equiv_pos_as_xyz
'+x,+y,+z'

loop_
_atom_site_label
_atom_site_type_symbol
_atom_site_fract_x
_atom_site_fract_y
_atom_site_fract_z
1	C	0.176471	0.367893	0.960115
2	C	0.139592	0.34387	0.959694
3	C	0.125045	0.30675	0.960029
4	C	0.149072	0.293897	0.959522
5	C	0.186193	0.316476	0.293226
6	C	0.199055	0.35336	0.959505
7	H	0.139102	0.267301	0.9622
8	H	0.225641	0.369963	0.962316
9	H	0.122975	0.353839	0.962518
10	C	0.189659	0.404603	0.96677
11	C	0.209741	0.303302	0.299736
12	C	0.088331	0.283209	0.966627
13	O	0.244039	0.327034	0.975877
14	O	0.165918	0.41513	0.976377
15	O	0.077789	0.248924	0.976155
16	C	0.32105	0.127653	0.03275
17	C	0.35641	0.155834	0.03257
18	C	0.365369	0.191812	0.03286
19	C	0.337188	0.198995	0.032796
20	C	0.30121	0.171974	0.366334
21	C	0.294034	0.136612	0.032712
22	H	0.34326	0.224738	0.030412
23	H	0.268295	0.116955	0.03023
24	H	0.376067	0.149762	0.029957
25	C	0.313355	0.092046	0.029286
26	C	0.273278	0.179647	0.363
27	C	0.400982	0.219715	0.029439
28	O	0.240662	0.153172	0.017944
29	O	0.339806	0.085909	0.017437
30	O	0.407147	0.252339	0.017724
31	C	0.256598	0.225205	0.023582
32	N	0.230137	0.206687	0.327185
33	C	0.210426	0.218977	0.307747
34	C	0.218473	0.253915	0.316601
35	N	0.244118	0.271944	0.013893
36	C	0.263338	0.259648	0.034759
37	H	0.191262	0.203423	0.285504
38	C	0.287731	0.280987	0.066379
39	C	0.27571	0.275334	0.112067
40	H	0.263174	0.247393	0.120902
41	H	0.256703	0.284399	0.117314
42	H	0.298078	0.289914	0.134391
43	O	0.307174	0.311938	0.055978
44	N	0.20037	0.268433	0.297705
45	H	0.179332	0.252525	0.280881
46	N	0.277407	0.212167	0.038211
47	H	0.297947	0.228139	0.055639
48	C	0.267758	0.029776	0.023383
49	N	0.286305	0.021701	0.327195
50	C	0.274008	0.489628	0.307953
51	C	0.239051	0.462787	0.316818
52	N	0.220993	0.470545	0.013901
53	C	0.233267	0.00215	0.03454
54	H	0.289587	0.485924	0.285853
55	C	0.211871	0.005384	0.065958
56	C	0.217433	0.999882	0.11194
57	H	0.245382	0.01554	0.120804
58	H	0.208455	0.971977	0.118046
59	H	0.202733	0.008008	0.133578
60	O	0.181084	0.49396	0.054776
61	N	0.224531	0.430115	0.298064
62	H	0.24044	0.424969	0.281275
63	N	0.28083	0.063664	0.037861
64	H	0.264885	0.068267	0.055285
65	C	0.463229	0.236315	0.023456
66	N	0.471297	0.262898	0.327209
67	C	0.00335	0.282614	0.307894
68	C	0.030171	0.274461	0.31673
69	N	0.02242	0.24867	0.013845
70	C	0.490832	0.229393	0.034546
71	H	0.007053	0.30188	0.285769
72	C	0.487609	0.20481	0.066032
73	C	0.49305	0.215918	0.111999
74	H	0.477353	0.228179	0.120781
75	H	0.520944	0.234882	0.118133
76	H	0.484936	0.193116	0.133683
77	O	0.999082	0.185467	0.054952
78	N	0.062835	0.292588	0.297944
79	H	0.067994	0.313652	0.281165
80	N	0.429343	0.215524	0.037952
81	H	0.424718	0.194953	0.055344
82	C	0.176471	0.367893	0.293449
83	C	0.139592	0.34387	0.293029
84	C	0.125045	0.30675	0.293362
85	C	0.149072	0.293897	0.292855
86	C	0.186193	0.316476	0.626558
87	C	0.199055	0.35336	0.292837
88	H	0.139102	0.267301	0.295533
89	H	0.225641	0.369963	0.295648
90	H	0.122975	0.353839	0.295851
91	C	0.189659	0.404603	0.300103
92	C	0.209741	0.303302	0.63307
93	C	0.088331	0.283209	0.299962
94	O	0.244039	0.327034	0.309213
95	O	0.165918	0.41513	0.309711
96	O	0.077789	0.248924	0.309489
97	C	0.32105	0.127653	0.366082
98	C	0.35641	0.155834	0.365903
99	C	0.365369	0.191812	0.366195
100	C	0.337188	0.198995	0.366128
101	C	0.30121	0.171974	0.699665
102	C	0.294034	0.136612	0.366045
103	H	0.34326	0.224738	0.363745
104	H	0.268295	0.116955	0.363563
105	H	0.376067	0.149762	0.363288
106	C	0.313355	0.092046	0.362619
107	C	0.273278	0.179647	0.696331
108	C	0.400982	0.219715	0.362771
109	O	0.240662	0.153172	0.351278
110	O	0.339806	0.085909	0.35077
111	O	0.407147	0.252339	0.351059
112	C	0.256598	0.225205	0.356915
113	N	0.230137	0.206687	0.660518
114	C	0.210426	0.218977	0.641081
115	C	0.218473	0.253915	0.649933
116	N	0.244118	0.271944	0.347228
117	C	0.263338	0.259648	0.368094
118	H	0.191262	0.203423	0.618836
119	C	0.287731	0.280987	0.399714
120	C	0.27571	0.275334	0.4454
121	H	0.263174	0.247393	0.454235
122	H	0.256703	0.284399	0.450646
123	H	0.298078	0.289914	0.467724
124	O	0.307174	0.311938	0.389311
125	N	0.20037	0.268433	0.631039
126	H	0.179332	0.252525	0.614213
127	N	0.277407	0.212167	0.371544
128	H	0.297947	0.228139	0.388973
129	C	0.267758	0.029776	0.356716
130	N	0.286305	0.021701	0.660528
131	C	0.274008	0.489628	0.641286
132	C	0.239051	0.462787	0.650152
133	N	0.220993	0.470545	0.347234
134	C	0.233267	0.00215	0.367875
135	H	0.289587	0.485924	0.619187
136	C	0.211871	0.005384	0.39929
137	C	0.217433	0.999882	0.445274
138	H	0.245382	0.01554	0.454136
139	H	0.208455	0.971977	0.451378
140	H	0.202733	0.008008	0.466912
141	O	0.181084	0.49396	0.388108
142	N	0.224531	0.430115	0.631397
143	H	0.24044	0.424969	0.614607
144	N	0.28083	0.063664	0.371192
145	H	0.264885	0.068267	0.388618
146	C	0.463229	0.236315	0.356789
147	N	0.471297	0.262898	0.660542
148	C	0.00335	0.282614	0.641227
149	C	0.030171	0.274461	0.650062
150	N	0.02242	0.24867	0.347178
151	C	0.490832	0.229393	0.367878
152	H	0.007053	0.30188	0.619101
153	C	0.487609	0.20481	0.399366
154	C	0.49305	0.215918	0.445333
155	H	0.477353	0.228179	0.454113
156	H	0.520944	0.234882	0.451465
157	H	0.484936	0.193116	0.467018
158	O	0.999082	0.185467	0.388287
159	N	0.062835	0.292588	0.631278
160	H	0.067994	0.313652	0.614498
161	N	0.429343	0.215524	0.371285
162	H	0.424718	0.194953	0.388678
163	C	0.176471	0.367893	0.626784
164	C	0.139592	0.34387	0.626363
165	C	0.125045	0.30675	0.626694
166	C	0.149072	0.293897	0.626187
167	C	0.186193	0.316476	0.959893
168	C	0.199055	0.35336	0.62617
169	H	0.139102	0.267301	0.628865
170	H	0.225641	0.369963	0.628981
171	H	0.122975	0.353839	0.629183
172	C	0.189659	0.404603	0.633435
173	C	0.209741	0.303302	0.966402
174	C	0.088331	0.283209	0.633296
175	O	0.244039	0.327034	0.642546
176	O	0.165918	0.41513	0.643043
177	O	0.077789	0.248924	0.642821
178	C	0.32105	0.127653	0.699417
179	C	0.35641	0.155834	0.699234
180	C	0.365369	0.191812	0.699526
181	C	0.337188	0.198995	0.699463
182	C	0.30121	0.171974	0.033
183	C	0.294034	0.136612	0.699377
184	H	0.34326	0.224738	0.697077
185	H	0.268295	0.116955	0.696895
186	H	0.376067	0.149762	0.696623
187	C	0.313355	0.092046	0.695953
188	C	0.273278	0.179647	0.029666
189	C	0.400982	0.219715	0.696106
190	O	0.240662	0.153172	0.684609
191	O	0.339806	0.085909	0.684102
192	O	0.407147	0.252339	0.68439
193	C	0.256598	0.225205	0.69025
194	N	0.230137	0.206687	0.99385
195	C	0.210426	0.218977	0.974412
196	C	0.218473	0.253915	0.983268
197	N	0.244118	0.271944	0.680559
198	C	0.263338	0.259648	0.701425
199	H	0.191262	0.203423	0.952171
200	C	0.287731	0.280987	0.733045
201	C	0.27571	0.275334	0.778734
202	H	0.263174	0.247393	0.78757
203	H	0.256703	0.284399	0.783981
204	H	0.298078	0.289914	0.801059
205	O	0.307174	0.311938	0.722646
206	N	0.20037	0.268433	0.96437
207	H	0.179332	0.252525	0.947548
208	N	0.277407	0.212167	0.704878
209	H	0.297947	0.228139	0.722304
210	C	0.267758	0.029776	0.690047
211	N	0.286305	0.021701	0.99386
212	C	0.274008	0.489628	0.974618
213	C	0.239051	0.462787	0.983483
214	N	0.220993	0.470545	0.680566
215	C	0.233267	0.00215	0.701206
216	H	0.289587	0.485924	0.952519
217	C	0.211871	0.005384	0.732624
218	C	0.217433	0.999882	0.778605
219	H	0.245382	0.01554	0.78747
220	H	0.208455	0.971977	0.784713
221	H	0.202733	0.008008	0.800243
222	O	0.181084	0.49396	0.721442
223	N	0.224531	0.430115	0.964732
224	H	0.24044	0.424969	0.947942
225	N	0.28083	0.063664	0.704527
226	H	0.264885	0.068267	0.721953
227	C	0.463229	0.236315	0.69012
228	N	0.471297	0.262898	0.993876
229	C	0.00335	0.282614	0.974561
230	C	0.030171	0.274461	0.983397
231	N	0.02242	0.24867	0.680513
232	C	0.490832	0.229393	0.701213
233	H	0.007053	0.30188	0.952436
234	C	0.487609	0.20481	0.732697
235	C	0.49305	0.215918	0.778665
236	H	0.477353	0.228179	0.787447
237	H	0.520944	0.234882	0.784799
238	H	0.484936	0.193116	0.800349
239	O	0.999082	0.185467	0.721618
240	N	0.062835	0.292588	0.964612
241	H	0.067994	0.313652	0.947829
242	N	0.429343	0.215524	0.70462
243	H	0.424718	0.194953	0.722009
244	C	0.17647	0.867892	0.960115
245	C	0.139592	0.843869	0.959694
246	C	0.125044	0.806749	0.960029
247	C	0.149073	0.793898	0.959522
248	C	0.186193	0.816475	0.293226
249	C	0.199055	0.853359	0.959505
250	H	0.139103	0.767303	0.9622
251	H	0.225641	0.869963	0.962316
252	H	0.122977	0.853841	0.962518
253	C	0.189661	0.904605	0.96677
254	C	0.209742	0.803304	0.299736
255	C	0.088331	0.783208	0.966627
256	O	0.24404	0.827036	0.975877
257	O	0.165919	0.915132	0.976377
258	O	0.077789	0.748925	0.976155
259	C	0.32105	0.627652	0.03275
260	C	0.356411	0.655835	0.03257
261	C	0.365371	0.691812	0.03286
262	C	0.337188	0.698997	0.032796
263	C	0.301211	0.671975	0.366334
264	C	0.294035	0.636614	0.032712
265	H	0.34326	0.724738	0.030412
266	H	0.268296	0.616957	0.03023
267	H	0.376068	0.649761	0.029957
268	C	0.313354	0.592045	0.029286
269	C	0.273279	0.679649	0.363
270	C	0.400982	0.719714	0.029439
271	O	0.240662	0.653172	0.017944
272	O	0.339807	0.585911	0.017437
273	O	0.407146	0.752339	0.017724
274	C	0.256599	0.725206	0.023582
275	N	0.230138	0.706689	0.327185
276	C	0.210425	0.718977	0.307747
277	C	0.218474	0.753915	0.316601
278	N	0.244118	0.771943	0.013893
279	C	0.263339	0.759648	0.034759
280	H	0.191263	0.703423	0.285504
281	C	0.287732	0.780989	0.066379
282	C	0.27571	0.775333	0.112067
283	H	0.263175	0.747394	0.120902
284	H	0.256702	0.784398	0.117314
285	H	0.298077	0.789914	0.134391
286	O	0.307174	0.811937	0.055978
287	N	0.200369	0.768432	0.297705
288	H	0.179333	0.752527	0.280881
289	N	0.277407	0.712168	0.038211
290	H	0.297947	0.728139	0.055639
291	C	0.267759	0.529776	0.023383
292	N	0.286305	0.5217	0.327195
293	C	0.27401	0.98963	0.307953
294	C	0.239051	0.962789	0.316818
295	N	0.220994	0.970547	0.013901
296	C	0.233268	0.502152	0.03454
297	H	0.289588	0.985926	0.285853
298	C	0.211872	0.505386	0.065958
299	C	0.217434	0.499883	0.11194
300	H	0.245382	0.515539	0.120804
301	H	0.208455	0.471978	0.118046
302	H	0.202733	0.508009	0.133578
303	O	0.181084	0.993959	0.054776
304	N	0.224532	0.930114	0.298064
305	H	0.240441	0.924971	0.281275
306	N	0.28083	0.563665	0.037861
307	H	0.264886	0.568268	0.055285
308	C	0.463229	0.736315	0.023456
309	N	0.471297	0.762897	0.327209
310	C	0.00335	0.782613	0.307894
311	C	0.030172	0.774463	0.31673
312	N	0.022422	0.748671	0.013845
313	C	0.490832	0.729395	0.034546
314	H	0.007054	0.801881	0.285769
315	C	0.487609	0.704811	0.066032
316	C	0.49305	0.715917	0.111999
317	H	0.477353	0.728179	0.120781
318	H	0.520944	0.734882	0.118133
319	H	0.484936	0.693116	0.133683
320	O	0.999081	0.685466	0.054952
321	N	0.062835	0.79259	0.297944
322	H	0.067994	0.813651	0.281165
323	N	0.429343	0.715523	0.037952
324	H	0.42472	0.694954	0.055343
325	C	0.17647	0.867892	0.293449
326	C	0.139592	0.843869	0.293029
327	C	0.125044	0.806749	0.293362
328	C	0.149073	0.793898	0.292855
329	C	0.186193	0.816475	0.626558
330	C	0.199055	0.853359	0.292837
331	H	0.139103	0.767303	0.295533
332	H	0.225641	0.869963	0.295648
333	H	0.122977	0.853841	0.295851
334	C	0.189661	0.904605	0.300103
335	C	0.209742	0.803304	0.63307
336	C	0.088331	0.783208	0.299962
337	O	0.24404	0.827036	0.309213
338	O	0.165919	0.915132	0.309711
339	O	0.077789	0.748925	0.309489
340	C	0.32105	0.627652	0.366082
341	C	0.356411	0.655835	0.365903
342	C	0.365371	0.691812	0.366195
343	C	0.337188	0.698997	0.366128
344	C	0.301211	0.671975	0.699665
345	C	0.294035	0.636614	0.366045
346	H	0.34326	0.724738	0.363745
347	H	0.268296	0.616957	0.363563
348	H	0.376068	0.649761	0.363288
349	C	0.313354	0.592045	0.362619
350	C	0.273279	0.679649	0.696331
351	C	0.400982	0.719714	0.362771
352	O	0.240662	0.653172	0.351278
353	O	0.339807	0.585911	0.35077
354	O	0.407146	0.752339	0.351059
355	C	0.256599	0.725206	0.356915
356	N	0.230138	0.706689	0.660518
357	C	0.210425	0.718977	0.641081
358	C	0.218474	0.753915	0.649933
359	N	0.244118	0.771943	0.347228
360	C	0.263339	0.759648	0.368094
361	H	0.191263	0.703423	0.618836
362	C	0.287732	0.780989	0.399714
363	C	0.27571	0.775333	0.4454
364	H	0.263175	0.747394	0.454235
365	H	0.256702	0.784398	0.450646
366	H	0.298077	0.789914	0.467724
367	O	0.307174	0.811937	0.389311
368	N	0.200369	0.768432	0.631039
369	H	0.179333	0.752527	0.614213
370	N	0.277407	0.712168	0.371544
371	H	0.297947	0.728139	0.388973
372	C	0.267759	0.529776	0.356716
373	N	0.286305	0.5217	0.660528
374	C	0.27401	0.98963	0.641286
375	C	0.239051	0.962789	0.650152
376	N	0.220994	0.970547	0.347234
377	C	0.233268	0.502152	0.367875
378	H	0.289588	0.985926	0.619187
379	C	0.211872	0.505386	0.39929
380	C	0.217434	0.499883	0.445274
381	H	0.245382	0.515539	0.454136
382	H	0.208455	0.471978	0.451378
383	H	0.202733	0.508009	0.466912
384	O	0.181084	0.993959	0.388111
385	N	0.224532	0.930114	0.631397
386	H	0.240441	0.924971	0.614607
387	N	0.28083	0.563665	0.371192
388	H	0.264886	0.568268	0.388618
389	C	0.463229	0.736315	0.356789
390	N	0.471297	0.762897	0.660542
391	C	0.00335	0.782613	0.641227
392	C	0.030172	0.774463	0.650062
393	N	0.022422	0.748671	0.347178
394	C	0.490832	0.729395	0.367878
395	H	0.007054	0.801881	0.619101
396	C	0.487609	0.704811	0.399366
397	C	0.49305	0.715917	0.445333
398	H	0.477353	0.728179	0.454113
399	H	0.520944	0.734882	0.451465
400	H	0.484936	0.693116	0.467015
401	O	0.999081	0.685466	0.388287
402	N	0.062835	0.79259	0.631278
403	H	0.067994	0.813651	0.614498
404	N	0.429343	0.715523	0.371285
405	H	0.42472	0.694954	0.388678
406	C	0.17647	0.867892	0.626784
407	C	0.139592	0.843869	0.626363
408	C	0.125044	0.806749	0.626694
409	C	0.149073	0.793898	0.626187
410	C	0.186193	0.816475	0.959893
411	C	0.199055	0.853359	0.62617
412	H	0.139103	0.767303	0.628865
413	H	0.225641	0.869963	0.628981
414	H	0.122977	0.853841	0.629183
415	C	0.189661	0.904605	0.633435
416	C	0.209742	0.803304	0.966402
417	C	0.088331	0.783208	0.633296
418	O	0.24404	0.827036	0.642546
419	O	0.165919	0.915132	0.643043
420	O	0.077789	0.748925	0.642821
421	C	0.32105	0.627652	0.699417
422	C	0.356411	0.655835	0.699234
423	C	0.365371	0.691812	0.699526
424	C	0.337188	0.698997	0.699463
425	C	0.301211	0.671975	0.033
426	C	0.294035	0.636614	0.699377
427	H	0.34326	0.724738	0.697077
428	H	0.268296	0.616957	0.696895
429	H	0.376068	0.649761	0.696623
430	C	0.313354	0.592045	0.695953
431	C	0.273279	0.679649	0.029666
432	C	0.400982	0.719714	0.696106
433	O	0.240662	0.653172	0.684609
434	O	0.339807	0.585911	0.684102
435	O	0.407146	0.752339	0.68439
436	C	0.256599	0.725206	0.69025
437	N	0.230138	0.706689	0.99385
438	C	0.210425	0.718977	0.974412
439	C	0.218474	0.753915	0.983268
440	N	0.244118	0.771943	0.680559
441	C	0.263339	0.759648	0.701425
442	H	0.191263	0.703423	0.952171
443	C	0.287732	0.780989	0.733045
444	C	0.27571	0.775333	0.778734
445	H	0.263175	0.747394	0.78757
446	H	0.256702	0.784398	0.783981
447	H	0.298077	0.789914	0.801059
448	O	0.307174	0.811937	0.722646
449	N	0.200369	0.768432	0.96437
450	H	0.179333	0.752527	0.947548
451	N	0.277407	0.712168	0.704878
452	H	0.297947	0.728139	0.722304
453	C	0.267759	0.529776	0.690047
454	N	0.286305	0.5217	0.99386
455	C	0.27401	0.98963	0.974618
456	C	0.239051	0.962789	0.983483
457	N	0.220994	0.970547	0.680566
458	C	0.233268	0.502152	0.701206
459	H	0.289588	0.985926	0.952519
460	C	0.211872	0.505386	0.732624
461	C	0.217434	0.499883	0.778605
462	H	0.245382	0.515539	0.78747
463	H	0.208455	0.471978	0.784713
464	H	0.202733	0.508009	0.800243
465	O	0.181084	0.993959	0.721442
466	N	0.224532	0.930114	0.964732
467	H	0.240441	0.924971	0.947942
468	N	0.28083	0.563665	0.704527
469	H	0.264886	0.568268	0.721953
470	C	0.463229	0.736315	0.69012
471	N	0.471297	0.762897	0.993876
472	C	0.00335	0.782613	0.974561
473	C	0.030172	0.774463	0.983397
474	N	0.022422	0.748671	0.680513
475	C	0.490832	0.729395	0.701213
476	H	0.007054	0.801881	0.952436
477	C	0.487609	0.704811	0.732697
478	C	0.49305	0.715917	0.778665
479	H	0.477353	0.728179	0.787447
480	H	0.520944	0.734882	0.784799
481	H	0.484936	0.693116	0.800349
482	O	0.999081	0.685466	0.721618
483	N	0.062835	0.79259	0.964612
484	H	0.067994	0.813651	0.947829
485	N	0.429343	0.715523	0.70462
486	H	0.42472	0.694954	0.722009
487	C	0.67647	0.367893	0.960115
488	C	0.639591	0.34387	0.959694
489	C	0.625046	0.30675	0.960029
490	C	0.649071	0.293897	0.959522
491	C	0.686194	0.316476	0.293226
492	C	0.699055	0.35336	0.959505
493	H	0.639103	0.267301	0.9622
494	H	0.72564	0.369963	0.962316
495	H	0.622974	0.353839	0.962518
496	C	0.689659	0.404603	0.96677
497	C	0.709741	0.303302	0.299736
498	C	0.58833	0.283209	0.966627
499	O	0.744039	0.327034	0.975877
500	O	0.665917	0.41513	0.976377
501	O	0.577788	0.248924	0.976155
502	C	0.82105	0.127653	0.03275
503	C	0.85641	0.155834	0.03257
504	C	0.865369	0.191812	0.03286
505	C	0.837188	0.198995	0.032796
506	C	0.801211	0.171974	0.366334
507	C	0.794034	0.136612	0.032712
508	H	0.84326	0.224738	0.030412
509	H	0.768294	0.116955	0.03023
510	H	0.876067	0.149762	0.029957
511	C	0.813355	0.092046	0.029286
512	C	0.773278	0.179647	0.363
513	C	0.900982	0.219715	0.029439
514	O	0.740663	0.153172	0.017944
515	O	0.839806	0.085909	0.017437
516	O	0.907147	0.252339	0.017724
517	C	0.756598	0.225205	0.023582
518	N	0.730137	0.206687	0.327185
519	C	0.710426	0.218977	0.307747
520	C	0.718474	0.253915	0.316601
521	N	0.744118	0.271944	0.013893
522	C	0.763339	0.259648	0.034759
523	H	0.691261	0.203423	0.285504
524	C	0.78773	0.280987	0.066379
525	C	0.775709	0.275334	0.112067
526	H	0.763174	0.247393	0.120902
527	H	0.756703	0.284399	0.117314
528	H	0.798076	0.289914	0.134391
529	O	0.807174	0.311938	0.055978
530	N	0.700369	0.268433	0.297705
531	H	0.679333	0.252525	0.280881
532	N	0.777406	0.212167	0.038211
533	H	0.797947	0.228139	0.055639
534	C	0.767758	0.029776	0.023383
535	N	0.786305	0.021701	0.327195
536	C	0.774009	0.489628	0.307953
537	C	0.739051	0.462787	0.316818
538	N	0.720992	0.470545	0.013901
539	C	0.733267	0.00215	0.03454
540	H	0.789588	0.485924	0.285853
541	C	0.711872	0.005384	0.065958
542	C	0.717434	0.999882	0.11194
543	H	0.745382	0.01554	0.120804
544	H	0.708454	0.971977	0.118046
545	H	0.702733	0.008008	0.133578
546	O	0.681084	0.49396	0.054776
547	N	0.724531	0.430115	0.298064
548	H	0.74044	0.424969	0.281275
549	N	0.78083	0.063664	0.037861
550	H	0.764885	0.068267	0.055285
551	C	0.963229	0.236315	0.023456
552	N	0.971297	0.262898	0.327209
553	C	0.50335	0.282614	0.307894
554	C	0.53017	0.274461	0.31673
555	N	0.52242	0.24867	0.013845
556	C	0.99083	0.229393	0.034546
557	H	0.507051	0.30188	0.285769
558	C	0.987609	0.20481	0.066032
559	C	0.99305	0.215918	0.111999
560	H	0.977353	0.228179	0.120781
561	H	0.020944	0.234882	0.118133
562	H	0.984936	0.193116	0.133683
563	O	0.499083	0.185467	0.054952
564	N	0.562833	0.292588	0.297944
565	H	0.567993	0.313652	0.281165
566	N	0.929343	0.215524	0.037952
567	H	0.924718	0.194953	0.055344
568	C	0.67647	0.367893	0.293449
569	C	0.639591	0.34387	0.293029
570	C	0.625046	0.30675	0.293362
571	C	0.649071	0.293897	0.292855
572	C	0.686194	0.316476	0.626558
573	C	0.699055	0.35336	0.292837
574	H	0.639103	0.267301	0.295533
575	H	0.72564	0.369963	0.295648
576	H	0.622974	0.353839	0.295851
577	C	0.689659	0.404603	0.300103
578	C	0.709741	0.303302	0.63307
579	C	0.58833	0.283209	0.299962
580	O	0.744039	0.327034	0.309213
581	O	0.665917	0.41513	0.309711
582	O	0.577788	0.248924	0.309489
583	C	0.82105	0.127653	0.366082
584	C	0.85641	0.155834	0.365903
585	C	0.865369	0.191812	0.366195
586	C	0.837188	0.198995	0.366128
587	C	0.801211	0.171974	0.699665
588	C	0.794034	0.136612	0.366045
589	H	0.84326	0.224738	0.363745
590	H	0.768294	0.116955	0.363563
591	H	0.876067	0.149762	0.363288
592	C	0.813355	0.092046	0.362619
593	C	0.773278	0.179647	0.696331
594	C	0.900982	0.219715	0.362771
595	O	0.740663	0.153172	0.351278
596	O	0.839806	0.085909	0.35077
597	O	0.907147	0.252339	0.351059
598	C	0.756598	0.225205	0.356915
599	N	0.730137	0.206687	0.660518
600	C	0.710426	0.218977	0.641081
601	C	0.718474	0.253915	0.649933
602	N	0.744118	0.271944	0.347228
603	C	0.763339	0.259648	0.368094
604	H	0.691261	0.203423	0.618836
605	C	0.78773	0.280987	0.399714
606	C	0.775709	0.275334	0.4454
607	H	0.763174	0.247393	0.454235
608	H	0.756703	0.284399	0.450646
609	H	0.798076	0.289914	0.467724
610	O	0.807174	0.311938	0.389311
611	N	0.700369	0.268433	0.631039
612	H	0.679333	0.252525	0.614213
613	N	0.777406	0.212167	0.371544
614	H	0.797947	0.228139	0.388973
615	C	0.767758	0.029776	0.356716
616	N	0.786305	0.021701	0.660528
617	C	0.774009	0.489628	0.641286
618	C	0.739051	0.462787	0.650152
619	N	0.720992	0.470545	0.347234
620	C	0.733267	0.00215	0.367875
621	H	0.789588	0.485924	0.619187
622	C	0.711872	0.005384	0.39929
623	C	0.717434	0.999882	0.445274
624	H	0.745382	0.01554	0.454136
625	H	0.708454	0.971977	0.451378
626	H	0.702733	0.008008	0.466912
627	O	0.681084	0.49396	0.388108
628	N	0.724531	0.430115	0.631397
629	H	0.74044	0.424969	0.614607
630	N	0.78083	0.063664	0.371192
631	H	0.764885	0.068267	0.388618
632	C	0.963229	0.236315	0.356789
633	N	0.971297	0.262898	0.660542
634	C	0.50335	0.282614	0.641227
635	C	0.53017	0.274461	0.650062
636	N	0.52242	0.24867	0.347178
637	C	0.99083	0.229393	0.367878
638	H	0.507051	0.30188	0.619101
639	C	0.987609	0.20481	0.399366
640	C	0.99305	0.215918	0.445333
641	H	0.977353	0.228179	0.454113
642	H	0.020944	0.234882	0.451465
643	H	0.984936	0.193116	0.467018
644	O	0.499083	0.185467	0.388287
645	N	0.562833	0.292588	0.631278
646	H	0.567993	0.313652	0.614498
647	N	0.929343	0.215524	0.371285
648	H	0.924718	0.194953	0.388678
649	C	0.67647	0.367893	0.626784
650	C	0.639591	0.34387	0.626363
651	C	0.625046	0.30675	0.626694
652	C	0.649071	0.293897	0.626187
653	C	0.686194	0.316476	0.959893
654	C	0.699055	0.35336	0.62617
655	H	0.639103	0.267301	0.628865
656	H	0.72564	0.369963	0.628981
657	H	0.622974	0.353839	0.629183
658	C	0.689659	0.404603	0.633435
659	C	0.709741	0.303302	0.966402
660	C	0.58833	0.283209	0.633296
661	O	0.744039	0.327034	0.642546
662	O	0.665917	0.41513	0.643043
663	O	0.577788	0.248924	0.642821
664	C	0.82105	0.127653	0.699417
665	C	0.85641	0.155834	0.699234
666	C	0.865369	0.191812	0.699526
667	C	0.837188	0.198995	0.699463
668	C	0.801211	0.171974	0.033
669	C	0.794034	0.136612	0.699377
670	H	0.84326	0.224738	0.697077
671	H	0.768294	0.116955	0.696895
672	H	0.876067	0.149762	0.696623
673	C	0.813355	0.092046	0.695953
674	C	0.773278	0.179647	0.029666
675	C	0.900982	0.219715	0.696106
676	O	0.740663	0.153172	0.684609
677	O	0.839806	0.085909	0.684102
678	O	0.907147	0.252339	0.68439
679	C	0.756598	0.225205	0.69025
680	N	0.730137	0.206687	0.99385
681	C	0.710426	0.218977	0.974412
682	C	0.718474	0.253915	0.983268
683	N	0.744118	0.271944	0.680559
684	C	0.763339	0.259648	0.701425
685	H	0.691261	0.203423	0.952171
686	C	0.78773	0.280987	0.733045
687	C	0.775709	0.275334	0.778734
688	H	0.763174	0.247393	0.78757
689	H	0.756703	0.284399	0.783981
690	H	0.798076	0.289914	0.801059
691	O	0.807174	0.311938	0.722646
692	N	0.700369	0.268433	0.96437
693	H	0.679333	0.252525	0.947548
694	N	0.777406	0.212167	0.704878
695	H	0.797947	0.228139	0.722304
696	C	0.767758	0.029776	0.690047
697	N	0.786305	0.021701	0.99386
698	C	0.774009	0.489628	0.974618
699	C	0.739051	0.462787	0.983483
700	N	0.720992	0.470545	0.680566
701	C	0.733267	0.00215	0.701206
702	H	0.789588	0.485924	0.952519
703	C	0.711872	0.005384	0.732624
704	C	0.717434	0.999882	0.778605
705	H	0.745382	0.01554	0.78747
706	H	0.708454	0.971977	0.784713
707	H	0.702733	0.008008	0.800243
708	O	0.681084	0.49396	0.721442
709	N	0.724531	0.430115	0.964732
710	H	0.74044	0.424969	0.947942
711	N	0.78083	0.063664	0.704527
712	H	0.764885	0.068267	0.721953
713	C	0.963229	0.236315	0.69012
714	N	0.971297	0.262898	0.993876
715	C	0.50335	0.282614	0.974561
716	C	0.53017	0.274461	0.983397
717	N	0.52242	0.24867	0.680513
718	C	0.99083	0.229393	0.701213
719	H	0.507051	0.30188	0.952436
720	C	0.987609	0.20481	0.732697
721	C	0.99305	0.215918	0.778665
722	H	0.977353	0.228179	0.787447
723	H	0.020944	0.234882	0.784799
724	H	0.984936	0.193116	0.800349
725	O	0.499083	0.185467	0.721618
726	N	0.562833	0.292588	0.964612
727	H	0.567993	0.313652	0.947829
728	N	0.929343	0.215524	0.70462
729	H	0.924718	0.194953	0.722009
730	C	0.67647	0.867892	0.960115
731	C	0.639591	0.843869	0.959694
732	C	0.625045	0.806749	0.960029
733	C	0.649073	0.793898	0.959522
734	C	0.686192	0.816475	0.293226
735	C	0.699054	0.853359	0.959505
736	H	0.639103	0.767303	0.9622
737	H	0.725641	0.869963	0.962316
738	H	0.622976	0.853841	0.962518
739	C	0.689661	0.904605	0.96677
740	C	0.709743	0.803304	0.299736
741	C	0.588331	0.783208	0.966627
742	O	0.744039	0.827036	0.975877
743	O	0.665918	0.915132	0.976377
744	O	0.577789	0.748925	0.976155
745	C	0.821049	0.627652	0.03275
746	C	0.856412	0.655835	0.03257
747	C	0.865371	0.691812	0.03286
748	C	0.837187	0.698997	0.032796
749	C	0.80121	0.671975	0.366334
750	C	0.794035	0.636614	0.032712
751	H	0.843259	0.724738	0.030412
752	H	0.768296	0.616957	0.03023
753	H	0.876068	0.649761	0.029957
754	C	0.813353	0.592045	0.029286
755	C	0.77328	0.679649	0.363
756	C	0.900981	0.719714	0.029439
757	O	0.740662	0.653172	0.017944
758	O	0.839808	0.585911	0.017437
759	O	0.907146	0.752339	0.017724
760	C	0.756598	0.725206	0.023582
761	N	0.730137	0.706689	0.327185
762	C	0.710425	0.718977	0.307747
763	C	0.718473	0.753915	0.316601
764	N	0.744117	0.771943	0.013893
765	C	0.763337	0.759648	0.034759
766	H	0.691262	0.703423	0.285504
767	C	0.787732	0.780989	0.066379
768	C	0.77571	0.775333	0.112067
769	H	0.763174	0.747394	0.120902
770	H	0.756701	0.784398	0.117314
771	H	0.798077	0.789914	0.134391
772	O	0.807175	0.811937	0.055978
773	N	0.70037	0.768432	0.297705
774	H	0.679332	0.752527	0.280881
775	N	0.777407	0.712168	0.038211
776	H	0.797946	0.728139	0.055639
777	C	0.76776	0.529776	0.023383
778	N	0.786306	0.5217	0.327195
779	C	0.774009	0.98963	0.307953
780	C	0.739051	0.962789	0.316818
781	N	0.720994	0.970547	0.013901
782	C	0.733267	0.502152	0.03454
783	H	0.789588	0.985926	0.285853
784	C	0.711872	0.505386	0.065958
785	C	0.717433	0.499883	0.11194
786	H	0.745381	0.515539	0.120804
787	H	0.708454	0.471978	0.118046
788	H	0.702732	0.508009	0.133578
789	O	0.681084	0.993959	0.054776
790	N	0.724532	0.930114	0.298064
791	H	0.74044	0.924971	0.281275
792	N	0.780829	0.563665	0.037861
793	H	0.764887	0.568268	0.055285
794	C	0.963228	0.736315	0.023456
795	N	0.971298	0.762897	0.327209
796	C	0.503349	0.782613	0.307894
797	C	0.530171	0.774463	0.31673
798	N	0.52242	0.748671	0.013845
799	C	0.990832	0.729395	0.034546
800	H	0.507054	0.801881	0.285769
801	C	0.987608	0.704811	0.066032
802	C	0.993049	0.715917	0.111999
803	H	0.977354	0.728179	0.120781
804	H	0.020945	0.734882	0.118133
805	H	0.984934	0.693116	0.133683
806	O	0.499082	0.685466	0.054952
807	N	0.562835	0.79259	0.297944
808	H	0.567993	0.813651	0.281165
809	N	0.929342	0.715523	0.037952
810	H	0.92472	0.694954	0.055343
811	C	0.67647	0.867892	0.293449
812	C	0.639591	0.843869	0.293029
813	C	0.625045	0.806749	0.293362
814	C	0.649073	0.793898	0.292855
815	C	0.686192	0.816475	0.626558
816	C	0.699054	0.853359	0.292837
817	H	0.639103	0.767303	0.295533
818	H	0.725641	0.869963	0.295648
819	H	0.622976	0.853841	0.295851
820	C	0.689661	0.904605	0.300103
821	C	0.709743	0.803304	0.63307
822	C	0.588331	0.783208	0.299962
823	O	0.744039	0.827036	0.309213
824	O	0.665918	0.915132	0.309711
825	O	0.577789	0.748925	0.309489
826	C	0.821049	0.627652	0.366082
827	C	0.856412	0.655835	0.365903
828	C	0.865371	0.691812	0.366195
829	C	0.837187	0.698997	0.366128
830	C	0.80121	0.671975	0.699665
831	C	0.794035	0.636614	0.366045
832	H	0.843259	0.724738	0.363745
833	H	0.768296	0.616957	0.363563
834	H	0.876068	0.649761	0.363288
835	C	0.813353	0.592045	0.362619
836	C	0.77328	0.679649	0.696331
837	C	0.900981	0.719714	0.362771
838	O	0.740662	0.653172	0.351278
839	O	0.839808	0.585911	0.35077
840	O	0.907146	0.752339	0.351059
841	C	0.756598	0.725206	0.356915
842	N	0.730137	0.706689	0.660518
843	C	0.710425	0.718977	0.641081
844	C	0.718473	0.753915	0.649933
845	N	0.744117	0.771943	0.347228
846	C	0.763337	0.759648	0.368094
847	H	0.691262	0.703423	0.618836
848	C	0.787732	0.780989	0.399714
849	C	0.77571	0.775333	0.4454
850	H	0.763174	0.747394	0.454235
851	H	0.756701	0.784398	0.450646
852	H	0.798077	0.789914	0.467724
853	O	0.807175	0.811937	0.389311
854	N	0.70037	0.768432	0.631039
855	H	0.679332	0.752527	0.614213
856	N	0.777407	0.712168	0.371544
857	H	0.797946	0.728139	0.388973
858	C	0.76776	0.529776	0.356716
859	N	0.786306	0.5217	0.660528
860	C	0.774009	0.98963	0.641286
861	C	0.739051	0.962789	0.650152
862	N	0.720994	0.970547	0.347234
863	C	0.733267	0.502152	0.367875
864	H	0.789588	0.985926	0.619187
865	C	0.711872	0.505386	0.39929
866	C	0.717433	0.499883	0.445274
867	H	0.745381	0.515539	0.454136
868	H	0.708454	0.471978	0.451378
869	H	0.702732	0.508009	0.466912
870	O	0.681084	0.993959	0.388111
871	N	0.724532	0.930114	0.631397
872	H	0.74044	0.924971	0.614607
873	N	0.780829	0.563665	0.371192
874	H	0.764887	0.568268	0.388618
875	C	0.963228	0.736315	0.356789
876	N	0.971298	0.762897	0.660542
877	C	0.503349	0.782613	0.641227
878	C	0.530171	0.774463	0.650062
879	N	0.52242	0.748671	0.347178
880	C	0.990832	0.729395	0.367878
881	H	0.507054	0.801881	0.619101
882	C	0.987608	0.704811	0.399366
883	C	0.993049	0.715917	0.445333
884	H	0.977354	0.728179	0.454113
885	H	0.020945	0.734882	0.451465
886	H	0.984934	0.693116	0.467015
887	O	0.499082	0.685466	0.388287
888	N	0.562835	0.79259	0.631278
889	H	0.567993	0.813651	0.614498
890	N	0.929342	0.715523	0.371285
891	H	0.92472	0.694954	0.388678
892	C	0.67647	0.867892	0.626784
893	C	0.639591	0.843869	0.626363
894	C	0.625045	0.806749	0.626694
895	C	0.649073	0.793898	0.626187
896	C	0.686192	0.816475	0.959893
897	C	0.699054	0.853359	0.62617
898	H	0.639103	0.767303	0.628865
899	H	0.725641	0.869963	0.628981
900	H	0.622976	0.853841	0.629183
901	C	0.689661	0.904605	0.633435
902	C	0.709743	0.803304	0.966402
903	C	0.588331	0.783208	0.633296
904	O	0.744039	0.827036	0.642546
905	O	0.665918	0.915132	0.643043
906	O	0.577789	0.748925	0.642821
907	C	0.821049	0.627652	0.699417
908	C	0.856412	0.655835	0.699234
909	C	0.865371	0.691812	0.699526
910	C	0.837187	0.698997	0.699463
911	C	0.80121	0.671975	0.033
912	C	0.794035	0.636614	0.699377
913	H	0.843259	0.724738	0.697077
914	H	0.768296	0.616957	0.696895
915	H	0.876068	0.649761	0.696623
916	C	0.813353	0.592045	0.695953
917	C	0.77328	0.679649	0.029666
918	C	0.900981	0.719714	0.696106
919	O	0.740662	0.653172	0.684609
920	O	0.839808	0.585911	0.684102
921	O	0.907146	0.752339	0.68439
922	C	0.756598	0.725206	0.69025
923	N	0.730137	0.706689	0.99385
924	C	0.710425	0.718977	0.974412
925	C	0.718473	0.753915	0.983268
926	N	0.744117	0.771943	0.680559
927	C	0.763337	0.759648	0.701425
928	H	0.691262	0.703423	0.952171
929	C	0.787732	0.780989	0.733045
930	C	0.77571	0.775333	0.778734
931	H	0.763174	0.747394	0.78757
932	H	0.756701	0.784398	0.783981
933	H	0.798077	0.789914	0.801059
934	O	0.807175	0.811937	0.722646
935	N	0.70037	0.768432	0.96437
936	H	0.679332	0.752527	0.947548
937	N	0.777407	0.712168	0.704878
938	H	0.797946	0.728139	0.722304
939	C	0.76776	0.529776	0.690047
940	N	0.786306	0.5217	0.99386
941	C	0.774009	0.98963	0.974618
942	C	0.739051	0.962789	0.983483
943	N	0.720994	0.970547	0.680566
944	C	0.733267	0.502152	0.701206
945	H	0.789588	0.985926	0.952519
946	C	0.711872	0.505386	0.732624
947	C	0.717433	0.499883	0.778605
948	H	0.745381	0.515539	0.78747
949	H	0.708454	0.471978	0.784713
950	H	0.702732	0.508009	0.800243
951	O	0.681084	0.993959	0.721442
952	N	0.724532	0.930114	0.964732
953	H	0.74044	0.924971	0.947942
954	N	0.780829	0.563665	0.704527
955	H	0.764887	0.568268	0.721953
956	C	0.963228	0.736315	0.69012
957	N	0.971298	0.762897	0.993876
958	C	0.503349	0.782613	0.974561
959	C	0.530171	0.774463	0.983397
960	N	0.52242	0.748671	0.680513
961	C	0.990832	0.729395	0.701213
962	H	0.507054	0.801881	0.952436
963	C	0.987608	0.704811	0.732697
964	C	0.993049	0.715917	0.778665
965	H	0.977354	0.728179	0.787447
966	H	0.020945	0.734882	0.784799
967	H	0.984934	0.693116	0.800349
968	O	0.499082	0.685466	0.721618
969	N	0.562835	0.79259	0.964612
970	H	0.567993	0.813651	0.947829
971	N	0.929342	0.715523	0.70462
972	H	0.92472	0.694954	0.722009
