data_C720H432N216O72_2018-02-15_10:35:37
#******************************************
#
# CIF file created by Zeo++
# Zeo++ is an open source package to
# analyze microporous materials
#
#*******************************************

_cell_length_a		46.482   
_cell_length_b		46.482   
_cell_length_c		29.63   
_cell_angle_alpha		90   
_cell_angle_beta		90   
_cell_angle_gamma		120   

_symmetry_space_group_name_H-M		'P1'
_symmetry_Int_Tables_number		1
_symmetry_cell_setting		Monoclinic

loop_
_symmetry_equiv_pos_as_xyz
'+x,+y,+z'

loop_
_atom_site_label
_atom_site_type_symbol
_atom_site_fract_x
_atom_site_fract_y
_atom_site_fract_z
1	C	0.027452	0.265252	0.347354
2	C	0.046784	0.30087	0.346237
3	C	0.08163	0.318871	0.339848
4	C	0.098661	0.300803	0.337756
5	C	0.081685	0.265729	0.007398
6	C	0.046718	0.248906	0.012575
7	H	0.035715	0.314965	0.347651
8	O	0.132654	0.31782	0.33838
9	H	0.139055	0.321243	0.037102
10	H	0.035582	0.223728	0.01354
11	C	0.110764	0.23859	0.043164
12	C	0.100662	0.249477	0.004323
13	N	0.121385	0.258728	0.301433
14	N	0.094093	0.231622	0.083015
15	H	0.101623	0.224714	0.109364
16	H	0.073398	0.231824	0.085972
17	C	0.100483	0.354014	0.002889
18	C	0.10941	0.374482	0.041621
19	N	0.122222	0.366063	0.301207
20	H	0.13537	0.414179	0.109687
21	H	0.095845	0.365069	0.070571
22	C	0.027452	0.265252	0.680688
23	C	0.046784	0.30087	0.679568
24	C	0.08163	0.318871	0.673182
25	C	0.098661	0.300803	0.67109
26	C	0.081685	0.265729	0.340732
27	C	0.046718	0.248906	0.345909
28	H	0.035715	0.314965	0.680982
29	O	0.132654	0.31782	0.671714
30	H	0.139055	0.321243	0.370435
31	H	0.035582	0.223728	0.346875
32	C	0.110764	0.23859	0.376497
33	C	0.100662	0.249477	0.337654
34	N	0.121385	0.258728	0.634765
35	N	0.094093	0.231622	0.416348
36	H	0.101623	0.224714	0.442696
37	H	0.073398	0.231824	0.419305
38	C	0.100483	0.354014	0.336221
39	C	0.10941	0.374482	0.374954
40	N	0.122222	0.366063	0.634539
41	H	0.13537	0.414179	0.44302
42	H	0.095845	0.365069	0.403905
43	C	0.027452	0.265252	0.014022
44	C	0.046784	0.30087	0.012902
45	C	0.08163	0.318871	0.006514
46	C	0.098661	0.300803	0.004424
47	C	0.081685	0.265729	0.674067
48	C	0.046718	0.248906	0.67924
49	H	0.035715	0.314965	0.014316
50	O	0.132654	0.31782	0.005049
51	H	0.139055	0.321243	0.70377
52	H	0.035582	0.223728	0.680206
53	C	0.110764	0.23859	0.709831
54	C	0.100662	0.249477	0.670989
55	N	0.121385	0.258728	0.9681
56	N	0.094093	0.231622	0.749682
57	H	0.101623	0.224714	0.776031
58	H	0.073398	0.231824	0.752639
59	C	0.100483	0.354014	0.669554
60	C	0.10941	0.374482	0.708289
61	N	0.122222	0.366063	0.967873
62	H	0.13537	0.414179	0.776355
63	H	0.095845	0.365069	0.737239
64	C	0.027452	0.765252	0.347354
65	C	0.046784	0.80087	0.346237
66	C	0.081631	0.818871	0.339848
67	C	0.098661	0.800803	0.337756
68	C	0.081686	0.765729	0.007398
69	C	0.046718	0.748906	0.012575
70	H	0.035715	0.814966	0.347651
71	O	0.132655	0.81782	0.33838
72	H	0.139056	0.821243	0.037102
73	H	0.035581	0.723729	0.01354
74	C	0.110764	0.738589	0.043164
75	C	0.100663	0.749477	0.004323
76	N	0.121385	0.758729	0.301433
77	N	0.094092	0.731621	0.083015
78	H	0.101624	0.724715	0.109364
79	H	0.073399	0.731825	0.085972
80	C	0.100483	0.854015	0.002889
81	C	0.109411	0.874482	0.041621
82	N	0.122223	0.866063	0.301207
83	H	0.135369	0.914179	0.109687
84	H	0.095845	0.865069	0.070571
85	C	0.027452	0.765252	0.680688
86	C	0.046784	0.80087	0.679568
87	C	0.081631	0.818871	0.673182
88	C	0.098661	0.800803	0.67109
89	C	0.081686	0.765729	0.340732
90	C	0.046718	0.748906	0.345909
91	H	0.035715	0.814966	0.680982
92	O	0.132655	0.81782	0.671714
93	H	0.139056	0.821243	0.370435
94	H	0.035581	0.723729	0.346875
95	C	0.110764	0.738589	0.376497
96	C	0.100663	0.749477	0.337654
97	N	0.121385	0.758729	0.634765
98	N	0.094092	0.731621	0.416348
99	H	0.101624	0.724715	0.442696
100	H	0.073399	0.731825	0.419305
101	C	0.100483	0.854015	0.336221
102	C	0.109411	0.874482	0.374954
103	N	0.122223	0.866063	0.634539
104	H	0.135369	0.914179	0.44302
105	H	0.095845	0.865069	0.403905
106	C	0.027452	0.765252	0.014022
107	C	0.046784	0.80087	0.012902
108	C	0.081631	0.818871	0.006514
109	C	0.098661	0.800803	0.004424
110	C	0.081686	0.765729	0.674067
111	C	0.046718	0.748906	0.67924
112	H	0.035715	0.814966	0.014316
113	O	0.132655	0.81782	0.005049
114	H	0.139056	0.821243	0.70377
115	H	0.035581	0.723729	0.680206
116	C	0.110764	0.738589	0.709831
117	C	0.100663	0.749477	0.670989
118	N	0.121385	0.758729	0.9681
119	N	0.094092	0.731621	0.749682
120	H	0.101624	0.724715	0.776031
121	H	0.073399	0.731825	0.752639
122	C	0.100483	0.854015	0.669554
123	C	0.109411	0.874482	0.708289
124	N	0.122223	0.866063	0.967873
125	H	0.135369	0.914179	0.776355
126	H	0.095845	0.865069	0.737239
127	C	0.214668	0.248881	0.345987
128	C	0.196649	0.265711	0.339662
129	C	0.214681	0.30081	0.337651
130	H	0.200597	0.22371	0.347087
131	O	0.197573	0.317698	0.338218
132	H	0.194251	0.320803	0.03693
133	H	0.226865	0.197508	0.013794
134	C	0.214777	0.417008	0.33839
135	C	0.196647	0.433963	0.00786
136	C	0.214775	0.468945	0.012869
137	O	0.197862	0.38302	0.339251
138	H	0.226896	0.032527	0.347219
139	H	0.194875	0.376732	0.038014
140	H	0.200713	0.480057	0.013886
141	C	0.161518	0.249395	0.002372
142	C	0.141176	0.238119	0.041258
143	N	0.149469	0.25888	0.300512
144	H	0.150632	0.234103	0.070272
145	C	0.14028	0.404898	0.043618
146	C	0.161404	0.415029	0.004954
147	N	0.150119	0.394176	0.30216
148	N	0.149865	0.421671	0.083396
149	H	0.17076	0.442375	0.086357
150	H	0.22812	0.13261	0.109589
151	C	0.214668	0.248881	0.679321
152	C	0.196649	0.265711	0.672997
153	C	0.214681	0.30081	0.670982
154	H	0.200597	0.22371	0.680422
155	O	0.197573	0.317698	0.671552
156	H	0.194251	0.320803	0.370263
157	H	0.226865	0.197508	0.347128
158	C	0.214777	0.417008	0.671724
159	C	0.196647	0.433963	0.341195
160	C	0.214775	0.468945	0.346203
161	O	0.197862	0.38302	0.672585
162	H	0.226896	0.032527	0.68055
163	H	0.194875	0.376732	0.371346
164	H	0.200713	0.480057	0.347219
165	C	0.161518	0.249395	0.335706
166	C	0.141176	0.238119	0.37459
167	N	0.149469	0.25888	0.633844
168	H	0.150632	0.234103	0.403604
169	C	0.14028	0.404898	0.376952
170	C	0.161404	0.415029	0.338289
171	N	0.150119	0.394176	0.635494
172	N	0.149865	0.421671	0.41673
173	H	0.17076	0.442375	0.419689
174	H	0.22812	0.13261	0.442923
175	C	0.214668	0.248881	0.012654
176	C	0.196649	0.265711	0.00633
177	C	0.214681	0.30081	0.004316
178	H	0.200597	0.22371	0.013754
179	O	0.197573	0.317698	0.004883
180	H	0.194251	0.320803	0.703597
181	H	0.226865	0.197508	0.680462
182	C	0.214777	0.417008	0.005059
183	C	0.196647	0.433963	0.674529
184	C	0.214775	0.468945	0.679534
185	O	0.197862	0.38302	0.005916
186	H	0.226896	0.032527	0.013884
187	H	0.194875	0.376732	0.704681
188	H	0.200713	0.480057	0.680553
189	C	0.161518	0.249395	0.669038
190	C	0.141176	0.238119	0.707924
191	N	0.149469	0.25888	0.967178
192	H	0.150632	0.234103	0.736939
193	C	0.14028	0.404898	0.710283
194	C	0.161404	0.415029	0.67162
195	N	0.150119	0.394176	0.968829
196	N	0.149865	0.421671	0.750064
197	H	0.17076	0.442375	0.753024
198	H	0.22812	0.13261	0.776257
199	C	0.214668	0.748881	0.345987
200	C	0.196649	0.765712	0.339662
201	C	0.214681	0.800811	0.337651
202	H	0.200597	0.723709	0.347087
203	O	0.197574	0.817698	0.338218
204	H	0.194251	0.820804	0.03693
205	H	0.226866	0.697508	0.013794
206	C	0.214778	0.917009	0.33839
207	C	0.196647	0.933963	0.00786
208	C	0.214775	0.968946	0.012869
209	O	0.197863	0.88302	0.339251
210	H	0.226896	0.532528	0.347219
211	H	0.194874	0.876733	0.038014
212	H	0.200712	0.980057	0.013886
213	C	0.161518	0.749395	0.002372
214	C	0.141176	0.73812	0.041258
215	N	0.149469	0.75888	0.300512
216	H	0.150632	0.734103	0.070272
217	C	0.140279	0.904898	0.043618
218	C	0.161404	0.915029	0.004954
219	N	0.150118	0.894174	0.30216
220	N	0.149866	0.921672	0.083396
221	H	0.170759	0.942375	0.086357
222	H	0.22812	0.632609	0.109589
223	C	0.214668	0.748881	0.679321
224	C	0.196649	0.765712	0.672997
225	C	0.214681	0.800811	0.670982
226	H	0.200597	0.723709	0.680422
227	O	0.197574	0.817698	0.671552
228	H	0.194251	0.820804	0.370263
229	H	0.226866	0.697508	0.347128
230	C	0.214778	0.917009	0.671724
231	C	0.196647	0.933963	0.341195
232	C	0.214775	0.968946	0.346203
233	O	0.197863	0.88302	0.672585
234	H	0.226896	0.532528	0.68055
235	H	0.194874	0.876733	0.371346
236	H	0.200712	0.980057	0.347219
237	C	0.161518	0.749395	0.335706
238	C	0.141176	0.73812	0.37459
239	N	0.149469	0.75888	0.633844
240	H	0.150632	0.734103	0.403604
241	C	0.140279	0.904898	0.376952
242	C	0.161404	0.915029	0.338289
243	N	0.150118	0.894174	0.635494
244	N	0.149866	0.921672	0.41673
245	H	0.170759	0.942375	0.419689
246	H	0.22812	0.632609	0.442923
247	C	0.214668	0.748881	0.012654
248	C	0.196649	0.765712	0.00633
249	C	0.214681	0.800811	0.004316
250	H	0.200597	0.723709	0.013754
251	O	0.197574	0.817698	0.004883
252	H	0.194251	0.820804	0.703597
253	H	0.226866	0.697508	0.680462
254	C	0.214778	0.917009	0.005059
255	C	0.196647	0.933963	0.674529
256	C	0.214775	0.968946	0.679534
257	O	0.197863	0.88302	0.005916
258	H	0.226896	0.532528	0.013884
259	H	0.194874	0.876733	0.704681
260	H	0.200712	0.980057	0.680553
261	C	0.161518	0.749395	0.669038
262	C	0.141176	0.73812	0.707924
263	N	0.149469	0.75888	0.967178
264	H	0.150632	0.734103	0.736939
265	C	0.140279	0.904898	0.710283
266	C	0.161404	0.915029	0.67162
267	N	0.150118	0.894174	0.968829
268	N	0.149866	0.921672	0.750064
269	H	0.170759	0.942375	0.753024
270	H	0.22812	0.632609	0.776257
271	C	0.250286	0.265215	0.34727
272	C	0.249747	0.31895	0.007477
273	C	0.266593	0.30083	0.012699
274	C	0.268356	0.247181	0.34727
275	C	0.252037	0.211567	0.012661
276	C	0.268868	0.193439	0.007404
277	H	0.291762	0.314888	0.013928
278	C	0.250389	0.48826	0.347428
279	C	0.266724	0.468978	0.346203
280	C	0.249886	0.4341	0.340179
281	H	0.2919	0.480092	0.347276
282	C	0.268414	0.024364	0.347351
283	C	0.268886	0.078481	0.339743
284	C	0.252068	0.043635	0.346075
285	C	0.266225	0.415309	0.003013
286	C	0.277643	0.40616	0.041666
287	C	0.277025	0.375205	0.043433
288	C	0.265969	0.354183	0.004627
289	N	0.256622	0.365755	0.301932
290	N	0.256537	0.393717	0.301169
291	N	0.284103	0.365466	0.083175
292	H	0.291002	0.379843	0.109589
293	H	0.283646	0.344445	0.08614
294	H	0.281679	0.419595	0.070713
295	C	0.252576	0.097288	0.002423
296	C	0.241382	0.106414	0.041364
297	C	0.241823	0.137279	0.043325
298	C	0.252593	0.158196	0.004438
299	N	0.261802	0.146766	0.301475
300	N	0.26197	0.118842	0.300582
301	N	0.234947	0.147018	0.083212
302	H	0.235145	0.167912	0.086175
303	H	0.237424	0.092966	0.070389
304	C	0.250286	0.265215	0.680604
305	C	0.249747	0.31895	0.34081
306	C	0.266593	0.30083	0.346031
307	C	0.268356	0.247181	0.680604
308	C	0.252037	0.211567	0.345994
309	C	0.268868	0.193439	0.340739
310	H	0.291762	0.314888	0.347263
311	C	0.250389	0.48826	0.680762
312	C	0.266724	0.468978	0.679537
313	C	0.249886	0.4341	0.673513
314	H	0.2919	0.480092	0.680611
315	C	0.268414	0.024364	0.680685
316	C	0.268886	0.078481	0.673078
317	C	0.252068	0.043635	0.679409
318	C	0.266225	0.415309	0.336345
319	C	0.277643	0.40616	0.374998
320	C	0.277025	0.375205	0.376767
321	C	0.265969	0.354183	0.337961
322	N	0.256622	0.365755	0.635265
323	N	0.256537	0.393717	0.634502
324	N	0.284103	0.365466	0.41651
325	H	0.291002	0.379843	0.442923
326	H	0.283646	0.344445	0.419473
327	H	0.281679	0.419595	0.404046
328	C	0.252576	0.097288	0.335757
329	C	0.241382	0.106414	0.374698
330	C	0.241823	0.137279	0.376659
331	C	0.252593	0.158196	0.337772
332	N	0.261802	0.146766	0.634809
333	N	0.26197	0.118842	0.633915
334	N	0.234947	0.147018	0.416547
335	H	0.235145	0.167912	0.41951
336	H	0.237424	0.092966	0.403722
337	C	0.250286	0.265215	0.013937
338	C	0.249747	0.31895	0.674144
339	C	0.266593	0.30083	0.679365
340	C	0.268356	0.247181	0.013937
341	C	0.252037	0.211567	0.679328
342	C	0.268868	0.193439	0.67407
343	H	0.291762	0.314888	0.680594
344	C	0.250389	0.48826	0.014095
345	C	0.266724	0.468978	0.01287
346	C	0.249886	0.4341	0.006846
347	H	0.2919	0.480092	0.013943
348	C	0.268414	0.024364	0.014017
349	C	0.268886	0.078481	0.00641
350	C	0.252068	0.043635	0.012743
351	C	0.266225	0.415309	0.669679
352	C	0.277643	0.40616	0.708333
353	C	0.277025	0.375205	0.710101
354	C	0.265969	0.354183	0.671296
355	N	0.256622	0.365755	0.968599
356	N	0.256537	0.393717	0.967836
357	N	0.284103	0.365466	0.749841
358	H	0.291002	0.379843	0.776257
359	H	0.283646	0.344445	0.752808
360	H	0.281679	0.419595	0.737381
361	C	0.252576	0.097288	0.669089
362	C	0.241382	0.106414	0.708032
363	C	0.241823	0.137279	0.709993
364	C	0.252593	0.158196	0.671103
365	N	0.261802	0.146766	0.968143
366	N	0.26197	0.118842	0.967249
367	N	0.234947	0.147018	0.749878
368	H	0.235145	0.167912	0.752841
369	H	0.237424	0.092966	0.737057
370	C	0.250287	0.765215	0.34727
371	C	0.249747	0.81895	0.007477
372	C	0.266593	0.800831	0.012699
373	C	0.268357	0.747182	0.34727
374	C	0.252036	0.711566	0.012661
375	C	0.268868	0.693439	0.007404
376	H	0.291762	0.814889	0.013928
377	C	0.250388	0.98826	0.347428
378	C	0.266725	0.968978	0.346203
379	C	0.249886	0.9341	0.340179
380	H	0.2919	0.980092	0.347276
381	C	0.268414	0.524363	0.347351
382	C	0.268886	0.578481	0.339743
383	C	0.252068	0.543635	0.346075
384	C	0.266225	0.91531	0.003013
385	C	0.277643	0.90616	0.041666
386	C	0.277024	0.875202	0.043433
387	C	0.265969	0.854184	0.004627
388	N	0.256622	0.865755	0.301932
389	N	0.256537	0.893717	0.301169
390	N	0.284103	0.865467	0.083175
391	H	0.291002	0.879843	0.109589
392	H	0.283646	0.844446	0.08614
393	H	0.28168	0.919595	0.070713
394	C	0.252576	0.597289	0.002423
395	C	0.241383	0.606415	0.041364
396	C	0.241823	0.637279	0.043325
397	C	0.252593	0.658196	0.004438
398	N	0.261802	0.646766	0.301475
399	N	0.26197	0.618841	0.300582
400	N	0.234947	0.647017	0.083212
401	H	0.235145	0.667912	0.086175
402	H	0.237424	0.592966	0.070389
403	C	0.250287	0.765215	0.680604
404	C	0.249747	0.81895	0.34081
405	C	0.266593	0.800831	0.346031
406	C	0.268357	0.747182	0.680604
407	C	0.252036	0.711566	0.345994
408	C	0.268868	0.693439	0.340739
409	H	0.291762	0.814889	0.347263
410	C	0.250388	0.98826	0.680762
411	C	0.266725	0.968978	0.679537
412	C	0.249886	0.9341	0.673513
413	H	0.2919	0.980092	0.680611
414	C	0.268414	0.524363	0.680685
415	C	0.268886	0.578481	0.673078
416	C	0.252068	0.543635	0.679409
417	C	0.266225	0.91531	0.336345
418	C	0.277643	0.90616	0.374998
419	C	0.277024	0.875202	0.376767
420	C	0.265969	0.854184	0.337961
421	N	0.256622	0.865755	0.635265
422	N	0.256537	0.893717	0.634502
423	N	0.284103	0.865467	0.41651
424	H	0.291002	0.879843	0.442923
425	H	0.283646	0.844446	0.419473
426	H	0.28168	0.919595	0.404046
427	C	0.252576	0.597289	0.335757
428	C	0.241383	0.606415	0.374698
429	C	0.241823	0.637279	0.376659
430	C	0.252593	0.658196	0.337772
431	N	0.261802	0.646766	0.634809
432	N	0.26197	0.618841	0.633915
433	N	0.234947	0.647017	0.416547
434	H	0.235145	0.667912	0.41951
435	H	0.237424	0.592966	0.403722
436	C	0.250287	0.765215	0.013937
437	C	0.249747	0.81895	0.674144
438	C	0.266593	0.800831	0.679365
439	C	0.268357	0.747182	0.013937
440	C	0.252036	0.711566	0.679328
441	C	0.268868	0.693439	0.67407
442	H	0.291762	0.814889	0.680594
443	C	0.250388	0.98826	0.014095
444	C	0.266725	0.968978	0.01287
445	C	0.249886	0.9341	0.006846
446	H	0.2919	0.980092	0.013943
447	C	0.268414	0.524363	0.014017
448	C	0.268886	0.578481	0.00641
449	C	0.252068	0.543635	0.012743
450	C	0.266225	0.91531	0.669679
451	C	0.277643	0.90616	0.708333
452	C	0.277024	0.875202	0.710101
453	C	0.265969	0.854184	0.671296
454	N	0.256622	0.865755	0.968599
455	N	0.256537	0.893717	0.967836
456	N	0.284103	0.865467	0.749841
457	H	0.291002	0.879843	0.776257
458	H	0.283646	0.844446	0.752808
459	H	0.28168	0.919595	0.737381
460	C	0.252576	0.597289	0.669089
461	C	0.241383	0.606415	0.708032
462	C	0.241823	0.637279	0.709993
463	C	0.252593	0.658196	0.671103
464	N	0.261802	0.646766	0.968143
465	N	0.26197	0.618841	0.967249
466	N	0.234947	0.647017	0.749878
467	H	0.235145	0.667912	0.752841
468	H	0.237424	0.592966	0.737057
469	C	0.491349	0.247221	0.347408
470	C	0.47208	0.26357	0.012743
471	C	0.437106	0.246757	0.007665
472	C	0.420125	0.21168	0.338083
473	C	0.437155	0.193608	0.340037
474	C	0.472018	0.211602	0.346257
475	O	0.386134	0.194642	0.338812
476	H	0.483095	0.19751	0.347432
477	H	0.379785	0.191294	0.037555
478	H	0.483225	0.288747	0.013749
479	C	0.303935	0.211558	0.337627
480	C	0.321985	0.246651	0.33974
481	C	0.303975	0.263498	0.346021
482	O	0.320977	0.194607	0.338117
483	H	0.318048	0.28867	0.347243
484	H	0.324418	0.191585	0.036815
485	C	0.304029	0.043685	0.012728
486	C	0.32214	0.078651	0.007483
487	C	0.303979	0.095557	0.337668
488	O	0.320858	0.129552	0.338211
489	H	0.323983	0.13599	0.036921
490	H	0.318101	0.032587	0.013911
491	C	0.357106	0.262919	0.00248
492	C	0.377428	0.274257	0.041399
493	C	0.407864	0.273845	0.043444
494	C	0.418187	0.263068	0.004725
495	N	0.39743	0.253695	0.301832
496	N	0.369303	0.253447	0.30078
497	N	0.424479	0.28082	0.083337
498	H	0.416876	0.287669	0.109669
499	H	0.445198	0.280664	0.086345
500	H	0.367927	0.278274	0.07037
501	C	0.41831	0.158473	0.002824
502	C	0.409295	0.13797	0.041539
503	C	0.37836	0.107609	0.043375
504	C	0.357387	0.097679	0.004542
505	N	0.368812	0.118485	0.301743
506	N	0.396753	0.146562	0.300955
507	N	0.368659	0.0908	0.083122
508	H	0.383049	0.0983	0.109519
509	H	0.347656	0.070222	0.086102
510	H	0.422765	0.14741	0.070553
511	C	0.491349	0.247221	0.680742
512	C	0.47208	0.26357	0.346078
513	C	0.437106	0.246757	0.340999
514	C	0.420125	0.21168	0.671414
515	C	0.437155	0.193608	0.673371
516	C	0.472018	0.211602	0.679591
517	O	0.386134	0.194642	0.672146
518	H	0.483095	0.19751	0.680766
519	H	0.379785	0.191294	0.370887
520	H	0.483225	0.288747	0.347084
521	C	0.303935	0.211558	0.670958
522	C	0.321985	0.246651	0.673071
523	C	0.303975	0.263498	0.679352
524	O	0.320977	0.194607	0.671451
525	H	0.318048	0.28867	0.680577
526	H	0.324418	0.191585	0.370148
527	C	0.304029	0.043685	0.346061
528	C	0.32214	0.078651	0.340817
529	C	0.303979	0.095557	0.670999
530	O	0.320858	0.129552	0.671545
531	H	0.323983	0.13599	0.370253
532	H	0.318101	0.032587	0.347246
533	C	0.357106	0.262919	0.335815
534	C	0.377428	0.274257	0.374732
535	C	0.407864	0.273845	0.376777
536	C	0.418187	0.263068	0.338059
537	N	0.39743	0.253695	0.635167
538	N	0.369303	0.253447	0.634114
539	N	0.424479	0.28082	0.416672
540	H	0.416876	0.287669	0.443004
541	H	0.445198	0.280664	0.419679
542	H	0.367927	0.278274	0.403702
543	C	0.41831	0.158473	0.336157
544	C	0.409295	0.13797	0.374873
545	C	0.37836	0.107609	0.376709
546	C	0.357387	0.097679	0.337877
547	N	0.368812	0.118485	0.635076
548	N	0.396753	0.146562	0.634289
549	N	0.368659	0.0908	0.416456
550	H	0.383049	0.0983	0.442852
551	H	0.347656	0.070222	0.419436
552	H	0.422765	0.14741	0.403888
553	C	0.491349	0.247221	0.014075
554	C	0.47208	0.26357	0.679409
555	C	0.437106	0.246757	0.67433
556	C	0.420125	0.21168	0.004748
557	C	0.437155	0.193608	0.006705
558	C	0.472018	0.211602	0.012925
559	O	0.386134	0.194642	0.005481
560	H	0.483095	0.19751	0.014099
561	H	0.379785	0.191294	0.704222
562	H	0.483225	0.288747	0.680415
563	C	0.303935	0.211558	0.004293
564	C	0.321985	0.246651	0.006405
565	C	0.303975	0.263498	0.012686
566	O	0.320977	0.194607	0.004782
567	H	0.318048	0.28867	0.013909
568	H	0.324418	0.191585	0.703483
569	C	0.304029	0.043685	0.679396
570	C	0.32214	0.078651	0.674151
571	C	0.303979	0.095557	0.004333
572	O	0.320858	0.129552	0.00488
573	H	0.323983	0.13599	0.703587
574	H	0.318101	0.032587	0.680577
575	C	0.357106	0.262919	0.669149
576	C	0.377428	0.274257	0.708066
577	C	0.407864	0.273845	0.710111
578	C	0.418187	0.263068	0.671394
579	N	0.39743	0.253695	0.968498
580	N	0.369303	0.253447	0.967445
581	N	0.424479	0.28082	0.750003
582	H	0.416876	0.287669	0.776335
583	H	0.445198	0.280664	0.75301
584	H	0.367927	0.278274	0.737037
585	C	0.41831	0.158473	0.66949
586	C	0.409295	0.13797	0.708208
587	C	0.37836	0.107609	0.710044
588	C	0.357387	0.097679	0.671208
589	N	0.368812	0.118485	0.96841
590	N	0.396753	0.146562	0.96762
591	N	0.368659	0.0908	0.74979
592	H	0.383049	0.0983	0.776186
593	H	0.347656	0.070222	0.752767
594	H	0.422765	0.14741	0.737219
595	C	0.491348	0.747222	0.347408
596	C	0.472081	0.76357	0.012743
597	C	0.437107	0.746757	0.007665
598	C	0.420126	0.711681	0.338083
599	C	0.437155	0.693608	0.340037
600	C	0.472018	0.711604	0.346257
601	O	0.386134	0.694641	0.338812
602	H	0.483095	0.697511	0.347432
603	H	0.379785	0.691295	0.037555
604	H	0.483226	0.788748	0.013749
605	C	0.303936	0.711559	0.337627
606	C	0.321984	0.74665	0.33974
607	C	0.303975	0.763498	0.346021
608	O	0.320977	0.694607	0.338117
609	H	0.318049	0.788671	0.347243
610	H	0.324418	0.691586	0.036815
611	C	0.304029	0.543685	0.012728
612	C	0.32214	0.578652	0.007483
613	C	0.303979	0.595557	0.337668
614	O	0.320857	0.629551	0.338211
615	H	0.323982	0.63599	0.036921
616	H	0.318101	0.532588	0.013911
617	C	0.357107	0.762919	0.00248
618	C	0.377427	0.774257	0.041399
619	C	0.407864	0.773845	0.043444
620	C	0.418188	0.763068	0.004725
621	N	0.39743	0.753696	0.301832
622	N	0.369302	0.753447	0.30078
623	N	0.42448	0.78082	0.083337
624	H	0.416876	0.787669	0.109669
625	H	0.445198	0.780664	0.086345
626	H	0.367927	0.778274	0.07037
627	C	0.41831	0.658474	0.002824
628	C	0.409294	0.63797	0.041539
629	C	0.378361	0.60761	0.043375
630	C	0.357386	0.597679	0.004542
631	N	0.368813	0.618486	0.301743
632	N	0.396752	0.646562	0.300955
633	N	0.368658	0.5908	0.083122
634	H	0.38305	0.5983	0.109519
635	H	0.347655	0.570221	0.086102
636	H	0.422764	0.64741	0.070553
637	C	0.491348	0.747222	0.680742
638	C	0.472081	0.76357	0.346078
639	C	0.437107	0.746757	0.340999
640	C	0.420126	0.711681	0.671414
641	C	0.437155	0.693608	0.673371
642	C	0.472018	0.711604	0.679591
643	O	0.386134	0.694641	0.672146
644	H	0.483095	0.697511	0.680766
645	H	0.379785	0.691295	0.370887
646	H	0.483226	0.788748	0.347084
647	C	0.303936	0.711559	0.670958
648	C	0.321984	0.74665	0.673071
649	C	0.303975	0.763498	0.679352
650	O	0.320977	0.694607	0.671451
651	H	0.318049	0.788671	0.680577
652	H	0.324418	0.691586	0.370148
653	C	0.304029	0.543685	0.346061
654	C	0.32214	0.578652	0.340817
655	C	0.303979	0.595557	0.670999
656	O	0.320857	0.629551	0.671545
657	H	0.323982	0.63599	0.370253
658	H	0.318101	0.532588	0.347246
659	C	0.357107	0.762919	0.335815
660	C	0.377427	0.774257	0.374732
661	C	0.407864	0.773845	0.376777
662	C	0.418188	0.763068	0.338059
663	N	0.39743	0.753696	0.635167
664	N	0.369302	0.753447	0.634114
665	N	0.42448	0.78082	0.416672
666	H	0.416876	0.787669	0.443004
667	H	0.445198	0.780664	0.419679
668	H	0.367927	0.778274	0.403702
669	C	0.41831	0.658474	0.336157
670	C	0.409294	0.63797	0.374873
671	C	0.378361	0.60761	0.376709
672	C	0.357386	0.597679	0.337877
673	N	0.368813	0.618486	0.635076
674	N	0.396752	0.646562	0.634289
675	N	0.368658	0.5908	0.416456
676	H	0.38305	0.5983	0.442852
677	H	0.347655	0.570221	0.419436
678	H	0.422764	0.64741	0.403888
679	C	0.491348	0.747222	0.014075
680	C	0.472081	0.76357	0.679409
681	C	0.437107	0.746757	0.67433
682	C	0.420126	0.711681	0.004748
683	C	0.437155	0.693608	0.006705
684	C	0.472018	0.711604	0.012925
685	O	0.386134	0.694641	0.005481
686	H	0.483095	0.697511	0.014099
687	H	0.379785	0.691295	0.704222
688	H	0.483226	0.788748	0.680415
689	C	0.303936	0.711559	0.004293
690	C	0.321984	0.74665	0.006405
691	C	0.303975	0.763498	0.012686
692	O	0.320977	0.694607	0.004782
693	H	0.318049	0.788671	0.013909
694	H	0.324418	0.691586	0.703483
695	C	0.304029	0.543685	0.679396
696	C	0.32214	0.578652	0.674151
697	C	0.303979	0.595557	0.004333
698	O	0.320857	0.629551	0.00488
699	H	0.323982	0.63599	0.703587
700	H	0.318101	0.532588	0.680577
701	C	0.357107	0.762919	0.669149
702	C	0.377427	0.774257	0.708066
703	C	0.407864	0.773845	0.710111
704	C	0.418188	0.763068	0.671394
705	N	0.39743	0.753696	0.968498
706	N	0.369302	0.753447	0.967445
707	N	0.42448	0.78082	0.750003
708	H	0.416876	0.787669	0.776335
709	H	0.445198	0.780664	0.75301
710	H	0.367927	0.778274	0.737037
711	C	0.41831	0.658474	0.66949
712	C	0.409294	0.63797	0.708208
713	C	0.378361	0.60761	0.710044
714	C	0.357386	0.597679	0.671208
715	N	0.368813	0.618486	0.96841
716	N	0.396752	0.646562	0.96762
717	N	0.368658	0.5908	0.74979
718	H	0.38305	0.5983	0.776186
719	H	0.347655	0.570221	0.752767
720	H	0.422764	0.64741	0.737219
721	C	0.527452	0.265252	0.347354
722	C	0.546784	0.30087	0.346237
723	C	0.581631	0.318871	0.339848
724	C	0.598661	0.300803	0.337756
725	C	0.581685	0.265729	0.007398
726	C	0.546717	0.248906	0.012575
727	H	0.535715	0.314965	0.347651
728	O	0.632655	0.31782	0.33838
729	C	0.991349	0.247221	0.347408
730	C	0.97208	0.26357	0.012743
731	C	0.937106	0.246757	0.007665
732	C	0.920125	0.21168	0.338083
733	C	0.937155	0.193608	0.340037
734	C	0.972018	0.211602	0.346257
735	O	0.886134	0.194642	0.338812
736	H	0.983095	0.19751	0.347432
737	H	0.639056	0.321243	0.037102
738	H	0.879785	0.191294	0.037555
739	H	0.535581	0.223728	0.01354
740	H	0.983225	0.288747	0.013749
741	C	0.750287	0.265215	0.34727
742	C	0.714667	0.248881	0.345987
743	C	0.696648	0.265711	0.339662
744	C	0.714682	0.30081	0.337651
745	C	0.749747	0.31895	0.007477
746	C	0.766593	0.30083	0.012699
747	H	0.700597	0.22371	0.347087
748	O	0.697574	0.317698	0.338218
749	C	0.768356	0.247181	0.34727
750	C	0.752036	0.211567	0.012661
751	C	0.768868	0.193439	0.007404
752	C	0.803935	0.211558	0.337627
753	C	0.821985	0.246651	0.33974
754	C	0.803975	0.263498	0.346021
755	O	0.820977	0.194607	0.338117
756	H	0.818048	0.28867	0.347243
757	H	0.694251	0.320803	0.03693
758	H	0.824418	0.191585	0.036815
759	H	0.791763	0.314888	0.013928
760	H	0.726866	0.197508	0.013794
761	C	0.750388	0.48826	0.347428
762	C	0.766725	0.468978	0.346203
763	C	0.749886	0.4341	0.340179
764	C	0.714778	0.417008	0.33839
765	C	0.696647	0.433963	0.00786
766	C	0.714775	0.468945	0.012869
767	H	0.7919	0.480092	0.347276
768	O	0.697863	0.38302	0.339251
769	C	0.768414	0.024364	0.347351
770	C	0.804029	0.043685	0.012728
771	C	0.82214	0.078651	0.007483
772	C	0.803979	0.095557	0.337668
773	C	0.768886	0.078481	0.339743
774	C	0.752068	0.043635	0.346075
775	O	0.820858	0.129552	0.338211
776	H	0.726896	0.032527	0.347219
777	H	0.694874	0.376732	0.038014
778	H	0.823983	0.13599	0.036921
779	H	0.700712	0.480057	0.013886
780	H	0.818101	0.032587	0.013911
781	C	0.661518	0.249395	0.002372
782	C	0.641176	0.238119	0.041258
783	C	0.610765	0.23859	0.043164
784	C	0.600663	0.249477	0.004323
785	N	0.621385	0.258728	0.301433
786	N	0.649469	0.25888	0.300512
787	N	0.594093	0.231622	0.083015
788	H	0.601624	0.224714	0.109364
789	H	0.573399	0.231824	0.085972
790	H	0.650632	0.234103	0.070272
791	C	0.766226	0.415309	0.003013
792	C	0.777642	0.40616	0.041666
793	C	0.777024	0.375205	0.043433
794	C	0.765969	0.354183	0.004627
795	N	0.756622	0.365755	0.301932
796	N	0.756537	0.393717	0.301169
797	N	0.784104	0.365466	0.083175
798	H	0.791001	0.379843	0.109589
799	H	0.783646	0.344445	0.08614
800	H	0.781679	0.419595	0.070713
801	C	0.600483	0.354014	0.002889
802	C	0.609411	0.374482	0.041621
803	C	0.640279	0.404898	0.043618
804	C	0.661404	0.415029	0.004954
805	N	0.650119	0.394176	0.30216
806	N	0.622223	0.366063	0.301207
807	N	0.649866	0.421671	0.083396
808	H	0.635369	0.414179	0.109687
809	H	0.670759	0.442375	0.086357
810	H	0.595845	0.365069	0.070571
811	C	0.857106	0.262919	0.00248
812	C	0.877428	0.274257	0.041399
813	C	0.907864	0.273845	0.043444
814	C	0.918187	0.263068	0.004725
815	N	0.89743	0.253695	0.301832
816	N	0.869301	0.253447	0.30078
817	N	0.924479	0.28082	0.083337
818	H	0.916876	0.287669	0.109669
819	H	0.945198	0.280664	0.086345
820	H	0.867927	0.278274	0.07037
821	C	0.752577	0.097288	0.002423
822	C	0.741381	0.106414	0.041364
823	C	0.741823	0.137279	0.043325
824	C	0.752593	0.158196	0.004438
825	N	0.761802	0.146766	0.301475
826	N	0.76197	0.118842	0.300582
827	N	0.734948	0.147018	0.083212
828	H	0.72812	0.13261	0.109589
829	H	0.735146	0.167912	0.086175
830	H	0.737423	0.092966	0.070389
831	C	0.91831	0.158473	0.002824
832	C	0.909295	0.13797	0.041539
833	C	0.87836	0.107609	0.043375
834	C	0.857387	0.097679	0.004542
835	N	0.868812	0.118485	0.301743
836	N	0.896753	0.146562	0.300955
837	N	0.868659	0.0908	0.083122
838	H	0.883049	0.0983	0.109519
839	H	0.847656	0.070222	0.086102
840	H	0.922765	0.14741	0.070553
841	C	0.527452	0.265252	0.680688
842	C	0.546784	0.30087	0.679568
843	C	0.581631	0.318871	0.673182
844	C	0.598661	0.300803	0.67109
845	C	0.581685	0.265729	0.340732
846	C	0.546717	0.248906	0.345909
847	H	0.535715	0.314965	0.680982
848	O	0.632655	0.31782	0.671714
849	C	0.991349	0.247221	0.680742
850	C	0.97208	0.26357	0.346078
851	C	0.937106	0.246757	0.340999
852	C	0.920125	0.21168	0.671414
853	C	0.937155	0.193608	0.673371
854	C	0.972018	0.211602	0.679591
855	O	0.886134	0.194642	0.672146
856	H	0.983095	0.19751	0.680766
857	H	0.639056	0.321243	0.370435
858	H	0.879785	0.191294	0.370887
859	H	0.535581	0.223728	0.346875
860	H	0.983225	0.288747	0.347084
861	C	0.750287	0.265215	0.680604
862	C	0.714667	0.248881	0.679321
863	C	0.696648	0.265711	0.672997
864	C	0.714682	0.30081	0.670982
865	C	0.749747	0.31895	0.34081
866	C	0.766593	0.30083	0.346031
867	H	0.700597	0.22371	0.680422
868	O	0.697574	0.317698	0.671552
869	C	0.768356	0.247181	0.680604
870	C	0.752036	0.211567	0.345994
871	C	0.768868	0.193439	0.340739
872	C	0.803935	0.211558	0.670958
873	C	0.821985	0.246651	0.673071
874	C	0.803975	0.263498	0.679352
875	O	0.820977	0.194607	0.671451
876	H	0.818048	0.28867	0.680577
877	H	0.694251	0.320803	0.370263
878	H	0.824418	0.191585	0.370148
879	H	0.791763	0.314888	0.347263
880	H	0.726866	0.197508	0.347128
881	C	0.750388	0.48826	0.680762
882	C	0.766725	0.468978	0.679537
883	C	0.749886	0.4341	0.673513
884	C	0.714778	0.417008	0.671724
885	C	0.696647	0.433963	0.341195
886	C	0.714775	0.468945	0.346203
887	H	0.7919	0.480092	0.680611
888	O	0.697863	0.38302	0.672585
889	C	0.768414	0.024364	0.680685
890	C	0.804029	0.043685	0.346061
891	C	0.82214	0.078651	0.340817
892	C	0.803979	0.095557	0.670999
893	C	0.768886	0.078481	0.673078
894	C	0.752068	0.043635	0.679409
895	O	0.820858	0.129552	0.671545
896	H	0.726896	0.032527	0.68055
897	H	0.694874	0.376732	0.371346
898	H	0.823983	0.13599	0.370253
899	H	0.700712	0.480057	0.347219
900	H	0.818101	0.032587	0.347246
901	C	0.661518	0.249395	0.335706
902	C	0.641176	0.238119	0.37459
903	C	0.610765	0.23859	0.376497
904	C	0.600663	0.249477	0.337654
905	N	0.621385	0.258728	0.634765
906	N	0.649469	0.25888	0.633844
907	N	0.594093	0.231622	0.416348
908	H	0.601624	0.224714	0.442696
909	H	0.573399	0.231824	0.419305
910	H	0.650632	0.234103	0.403604
911	C	0.766226	0.415309	0.336345
912	C	0.777642	0.40616	0.374998
913	C	0.777024	0.375205	0.376767
914	C	0.765969	0.354183	0.337961
915	N	0.756622	0.365755	0.635265
916	N	0.756537	0.393717	0.634502
917	N	0.784104	0.365466	0.41651
918	H	0.791001	0.379843	0.442923
919	H	0.783646	0.344445	0.419473
920	H	0.781679	0.419595	0.404046
921	C	0.600483	0.354014	0.336221
922	C	0.609411	0.374482	0.374954
923	C	0.640279	0.404898	0.376952
924	C	0.661404	0.415029	0.338289
925	N	0.650119	0.394176	0.635494
926	N	0.622223	0.366063	0.634539
927	N	0.649866	0.421671	0.41673
928	H	0.635369	0.414179	0.44302
929	H	0.670759	0.442375	0.419689
930	H	0.595845	0.365069	0.403905
931	C	0.857106	0.262919	0.335815
932	C	0.877428	0.274257	0.374732
933	C	0.907864	0.273845	0.376777
934	C	0.918187	0.263068	0.338059
935	N	0.89743	0.253695	0.635167
936	N	0.869301	0.253447	0.634114
937	N	0.924479	0.28082	0.416672
938	H	0.916876	0.287669	0.443004
939	H	0.945198	0.280664	0.419679
940	H	0.867927	0.278274	0.403702
941	C	0.752577	0.097288	0.335757
942	C	0.741381	0.106414	0.374698
943	C	0.741823	0.137279	0.376659
944	C	0.752593	0.158196	0.337772
945	N	0.761802	0.146766	0.634809
946	N	0.76197	0.118842	0.633915
947	N	0.734948	0.147018	0.416547
948	H	0.72812	0.13261	0.442923
949	H	0.735146	0.167912	0.41951
950	H	0.737423	0.092966	0.403722
951	C	0.91831	0.158473	0.336157
952	C	0.909295	0.13797	0.374873
953	C	0.87836	0.107609	0.376709
954	C	0.857387	0.097679	0.337877
955	N	0.868812	0.118485	0.635076
956	N	0.896753	0.146562	0.634289
957	N	0.868659	0.0908	0.416456
958	H	0.883049	0.0983	0.442852
959	H	0.847656	0.070222	0.419436
960	H	0.922765	0.14741	0.403888
961	C	0.527452	0.265252	0.014022
962	C	0.546784	0.30087	0.012902
963	C	0.581631	0.318871	0.006514
964	C	0.598661	0.300803	0.004424
965	C	0.581685	0.265729	0.674067
966	C	0.546717	0.248906	0.67924
967	H	0.535715	0.314965	0.014316
968	O	0.632655	0.31782	0.005049
969	C	0.991349	0.247221	0.014075
970	C	0.97208	0.26357	0.679409
971	C	0.937106	0.246757	0.67433
972	C	0.920125	0.21168	0.004748
973	C	0.937155	0.193608	0.006705
974	C	0.972018	0.211602	0.012925
975	O	0.886134	0.194642	0.005481
976	H	0.983095	0.19751	0.014099
977	H	0.639056	0.321243	0.70377
978	H	0.879785	0.191294	0.704222
979	H	0.535581	0.223728	0.680206
980	H	0.983225	0.288747	0.680415
981	C	0.750287	0.265215	0.013937
982	C	0.714667	0.248881	0.012654
983	C	0.696648	0.265711	0.00633
984	C	0.714682	0.30081	0.004316
985	C	0.749747	0.31895	0.674144
986	C	0.766593	0.30083	0.679365
987	H	0.700597	0.22371	0.013754
988	O	0.697574	0.317698	0.004883
989	C	0.768356	0.247181	0.013937
990	C	0.752036	0.211567	0.679328
991	C	0.768868	0.193439	0.67407
992	C	0.803935	0.211558	0.004293
993	C	0.821985	0.246651	0.006405
994	C	0.803975	0.263498	0.012686
995	O	0.820977	0.194607	0.004782
996	H	0.818048	0.28867	0.013909
997	H	0.694251	0.320803	0.703597
998	H	0.824418	0.191585	0.703483
999	H	0.791763	0.314888	0.680594
1000	H	0.726866	0.197508	0.680462
1001	C	0.750388	0.48826	0.014095
1002	C	0.766725	0.468978	0.01287
1003	C	0.749886	0.4341	0.006846
1004	C	0.714778	0.417008	0.005059
1005	C	0.696647	0.433963	0.674529
1006	C	0.714775	0.468945	0.679534
1007	H	0.7919	0.480092	0.013943
1008	O	0.697863	0.38302	0.005916
1009	C	0.768414	0.024364	0.014017
1010	C	0.804029	0.043685	0.679396
1011	C	0.82214	0.078651	0.674151
1012	C	0.803979	0.095557	0.004333
1013	C	0.768886	0.078481	0.00641
1014	C	0.752068	0.043635	0.012743
1015	O	0.820858	0.129552	0.00488
1016	H	0.726896	0.032527	0.013884
1017	H	0.694874	0.376732	0.704681
1018	H	0.823983	0.13599	0.703587
1019	H	0.700712	0.480057	0.680553
1020	H	0.818101	0.032587	0.680577
1021	C	0.661518	0.249395	0.669038
1022	C	0.641176	0.238119	0.707924
1023	C	0.610765	0.23859	0.709831
1024	C	0.600663	0.249477	0.670989
1025	N	0.621385	0.258728	0.9681
1026	N	0.649469	0.25888	0.967178
1027	N	0.594093	0.231622	0.749682
1028	H	0.601624	0.224714	0.776031
1029	H	0.573399	0.231824	0.752639
1030	H	0.650632	0.234103	0.736939
1031	C	0.766226	0.415309	0.669679
1032	C	0.777642	0.40616	0.708333
1033	C	0.777024	0.375205	0.710101
1034	C	0.765969	0.354183	0.671296
1035	N	0.756622	0.365755	0.968599
1036	N	0.756537	0.393717	0.967836
1037	N	0.784104	0.365466	0.749841
1038	H	0.791001	0.379843	0.776257
1039	H	0.783646	0.344445	0.752808
1040	H	0.781679	0.419595	0.737381
1041	C	0.600483	0.354014	0.669554
1042	C	0.609411	0.374482	0.708289
1043	C	0.640279	0.404898	0.710283
1044	C	0.661404	0.415029	0.67162
1045	N	0.650119	0.394176	0.968829
1046	N	0.622223	0.366063	0.967873
1047	N	0.649866	0.421671	0.750064
1048	H	0.635369	0.414179	0.776355
1049	H	0.670759	0.442375	0.753024
1050	H	0.595845	0.365069	0.737239
1051	C	0.857106	0.262919	0.669149
1052	C	0.877428	0.274257	0.708066
1053	C	0.907864	0.273845	0.710111
1054	C	0.918187	0.263068	0.671394
1055	N	0.89743	0.253695	0.968498
1056	N	0.869301	0.253447	0.967445
1057	N	0.924479	0.28082	0.750003
1058	H	0.916876	0.287669	0.776335
1059	H	0.945198	0.280664	0.75301
1060	H	0.867927	0.278274	0.737037
1061	C	0.752577	0.097288	0.669089
1062	C	0.741381	0.106414	0.708032
1063	C	0.741823	0.137279	0.709993
1064	C	0.752593	0.158196	0.671103
1065	N	0.761802	0.146766	0.968143
1066	N	0.76197	0.118842	0.967249
1067	N	0.734948	0.147018	0.749878
1068	H	0.72812	0.13261	0.776257
1069	H	0.735146	0.167912	0.752841
1070	H	0.737423	0.092966	0.737057
1071	C	0.91831	0.158473	0.66949
1072	C	0.909295	0.13797	0.708208
1073	C	0.87836	0.107609	0.710044
1074	C	0.857387	0.097679	0.671208
1075	N	0.868812	0.118485	0.96841
1076	N	0.896753	0.146562	0.96762
1077	N	0.868659	0.0908	0.74979
1078	H	0.883049	0.0983	0.776186
1079	H	0.847656	0.070222	0.752767
1080	H	0.922765	0.14741	0.737219
1081	C	0.527452	0.765252	0.347354
1082	C	0.546784	0.80087	0.346237
1083	C	0.58163	0.818871	0.339848
1084	C	0.598662	0.800803	0.337756
1085	C	0.581685	0.765729	0.007398
1086	C	0.546718	0.748906	0.012575
1087	H	0.535715	0.814966	0.347651
1088	O	0.632655	0.81782	0.33838
1089	C	0.991349	0.747222	0.347408
1090	C	0.97208	0.76357	0.012743
1091	C	0.937107	0.746757	0.007665
1092	C	0.920125	0.711681	0.338083
1093	C	0.937155	0.693608	0.340037
1094	C	0.972019	0.711604	0.346257
1095	O	0.886134	0.694641	0.338812
1096	H	0.983096	0.697511	0.347432
1097	H	0.639056	0.821243	0.037102
1098	H	0.879786	0.691295	0.037555
1099	H	0.535582	0.723729	0.01354
1100	H	0.983225	0.788748	0.013749
1101	C	0.750287	0.765215	0.34727
1102	C	0.714667	0.748881	0.345987
1103	C	0.696648	0.765712	0.339662
1104	C	0.714682	0.800811	0.337651
1105	C	0.749747	0.81895	0.007477
1106	C	0.766594	0.800831	0.012699
1107	H	0.700596	0.723709	0.347087
1108	O	0.697574	0.817698	0.338218
1109	C	0.768357	0.747182	0.34727
1110	C	0.752035	0.711566	0.012661
1111	C	0.768868	0.693439	0.007404
1112	C	0.803936	0.711559	0.337627
1113	C	0.821985	0.74665	0.33974
1114	C	0.803975	0.763498	0.346021
1115	O	0.820977	0.694607	0.338117
1116	H	0.818048	0.788671	0.347243
1117	H	0.694251	0.820804	0.03693
1118	H	0.824419	0.691586	0.036815
1119	H	0.791763	0.814889	0.013928
1120	H	0.726866	0.697508	0.013794
1121	C	0.750388	0.98826	0.347428
1122	C	0.766725	0.968978	0.346203
1123	C	0.749886	0.9341	0.340179
1124	C	0.714778	0.917009	0.33839
1125	C	0.696647	0.933963	0.00786
1126	C	0.714775	0.968946	0.012869
1127	H	0.791901	0.980092	0.347276
1128	O	0.697863	0.88302	0.339251
1129	C	0.768414	0.524363	0.347351
1130	C	0.804029	0.543685	0.012728
1131	C	0.822141	0.578652	0.007483
1132	C	0.803979	0.595557	0.337668
1133	C	0.768886	0.578481	0.339743
1134	C	0.752068	0.543635	0.346075
1135	O	0.820857	0.629551	0.338211
1136	H	0.726896	0.532528	0.347219
1137	H	0.694874	0.876733	0.038014
1138	H	0.823982	0.63599	0.036921
1139	H	0.700713	0.980057	0.013886
1140	H	0.818101	0.532588	0.013911
1141	C	0.661518	0.749395	0.002372
1142	C	0.641176	0.73812	0.041258
1143	C	0.610764	0.738589	0.043164
1144	C	0.600663	0.749477	0.004323
1145	N	0.621385	0.758729	0.301433
1146	N	0.649469	0.75888	0.300512
1147	N	0.594092	0.731621	0.083015
1148	H	0.601624	0.724715	0.109364
1149	H	0.573399	0.731825	0.085972
1150	H	0.650632	0.734103	0.070272
1151	C	0.766226	0.91531	0.003013
1152	C	0.777642	0.90616	0.041666
1153	C	0.777025	0.875202	0.043433
1154	C	0.765969	0.854184	0.004627
1155	N	0.756622	0.865755	0.301932
1156	N	0.756537	0.893717	0.301169
1157	N	0.784104	0.865467	0.083175
1158	H	0.791001	0.879843	0.109589
1159	H	0.783647	0.844446	0.08614
1160	H	0.781679	0.919595	0.070713
1161	C	0.600483	0.854015	0.002889
1162	C	0.609411	0.874482	0.041621
1163	C	0.64028	0.904898	0.043618
1164	C	0.661404	0.915029	0.004954
1165	N	0.650117	0.894174	0.30216
1166	N	0.622222	0.866063	0.301207
1167	N	0.649866	0.921672	0.083396
1168	H	0.63537	0.914179	0.109687
1169	H	0.67076	0.942375	0.086357
1170	H	0.595846	0.865069	0.070571
1171	C	0.857106	0.762919	0.00248
1172	C	0.877428	0.774257	0.041399
1173	C	0.907864	0.773845	0.043444
1174	C	0.918187	0.763068	0.004725
1175	N	0.89743	0.753696	0.301832
1176	N	0.869301	0.753447	0.30078
1177	N	0.924479	0.78082	0.083337
1178	H	0.916876	0.787669	0.109669
1179	H	0.945198	0.780664	0.086345
1180	H	0.867927	0.778274	0.07037
1181	C	0.752577	0.597289	0.002423
1182	C	0.741382	0.606415	0.041364
1183	C	0.741823	0.637279	0.043325
1184	C	0.752593	0.658196	0.004438
1185	N	0.761802	0.646766	0.301475
1186	N	0.76197	0.618841	0.300582
1187	N	0.734947	0.647017	0.083212
1188	H	0.72812	0.632609	0.109589
1189	H	0.735146	0.667912	0.086175
1190	H	0.737424	0.592966	0.070389
1191	C	0.91831	0.658474	0.002824
1192	C	0.909295	0.63797	0.041539
1193	C	0.878361	0.60761	0.043375
1194	C	0.857387	0.597679	0.004542
1195	N	0.868812	0.618486	0.301743
1196	N	0.896753	0.646562	0.300955
1197	N	0.868658	0.5908	0.083122
1198	H	0.883049	0.5983	0.109519
1199	H	0.847655	0.570221	0.086102
1200	H	0.922765	0.64741	0.070553
1201	C	0.527452	0.765252	0.680688
1202	C	0.546784	0.80087	0.679568
1203	C	0.58163	0.818871	0.673182
1204	C	0.598662	0.800803	0.67109
1205	C	0.581685	0.765729	0.340732
1206	C	0.546718	0.748906	0.345909
1207	H	0.535715	0.814966	0.680982
1208	O	0.632655	0.81782	0.671714
1209	C	0.991349	0.747222	0.680742
1210	C	0.97208	0.76357	0.346078
1211	C	0.937107	0.746757	0.340999
1212	C	0.920125	0.711681	0.671414
1213	C	0.937155	0.693608	0.673371
1214	C	0.972019	0.711604	0.679591
1215	O	0.886134	0.694641	0.672146
1216	H	0.983096	0.697511	0.680766
1217	H	0.639056	0.821243	0.370435
1218	H	0.879786	0.691295	0.370887
1219	H	0.535582	0.723729	0.346875
1220	H	0.983225	0.788748	0.347084
1221	C	0.750287	0.765215	0.680604
1222	C	0.714667	0.748881	0.679321
1223	C	0.696648	0.765712	0.672997
1224	C	0.714682	0.800811	0.670982
1225	C	0.749747	0.81895	0.34081
1226	C	0.766594	0.800831	0.346031
1227	H	0.700596	0.723709	0.680422
1228	O	0.697574	0.817698	0.671552
1229	C	0.768357	0.747182	0.680604
1230	C	0.752035	0.711566	0.345994
1231	C	0.768868	0.693439	0.340739
1232	C	0.803936	0.711559	0.670958
1233	C	0.821985	0.74665	0.673071
1234	C	0.803975	0.763498	0.679352
1235	O	0.820977	0.694607	0.671451
1236	H	0.818048	0.788671	0.680577
1237	H	0.694251	0.820804	0.370263
1238	H	0.824419	0.691586	0.370148
1239	H	0.791763	0.814889	0.347263
1240	H	0.726866	0.697508	0.347128
1241	C	0.750388	0.98826	0.680762
1242	C	0.766725	0.968978	0.679537
1243	C	0.749886	0.9341	0.673513
1244	C	0.714778	0.917009	0.671724
1245	C	0.696647	0.933963	0.341195
1246	C	0.714775	0.968946	0.346203
1247	H	0.791901	0.980092	0.680611
1248	O	0.697863	0.88302	0.672585
1249	C	0.768414	0.524363	0.680685
1250	C	0.804029	0.543685	0.346061
1251	C	0.822141	0.578652	0.340817
1252	C	0.803979	0.595557	0.670999
1253	C	0.768886	0.578481	0.673078
1254	C	0.752068	0.543635	0.679409
1255	O	0.820857	0.629551	0.671545
1256	H	0.726896	0.532528	0.68055
1257	H	0.694874	0.876733	0.371346
1258	H	0.823982	0.63599	0.370253
1259	H	0.700713	0.980057	0.347219
1260	H	0.818101	0.532588	0.347246
1261	C	0.661518	0.749395	0.335706
1262	C	0.641176	0.73812	0.37459
1263	C	0.610764	0.738589	0.376497
1264	C	0.600663	0.749477	0.337654
1265	N	0.621385	0.758729	0.634765
1266	N	0.649469	0.75888	0.633844
1267	N	0.594092	0.731621	0.416348
1268	H	0.601624	0.724715	0.442696
1269	H	0.573399	0.731825	0.419305
1270	H	0.650632	0.734103	0.403604
1271	C	0.766226	0.91531	0.336345
1272	C	0.777642	0.90616	0.374998
1273	C	0.777025	0.875202	0.376767
1274	C	0.765969	0.854184	0.337961
1275	N	0.756622	0.865755	0.635265
1276	N	0.756537	0.893717	0.634502
1277	N	0.784104	0.865467	0.41651
1278	H	0.791001	0.879843	0.442923
1279	H	0.783647	0.844446	0.419473
1280	H	0.781679	0.919595	0.404046
1281	C	0.600483	0.854015	0.336221
1282	C	0.609411	0.874482	0.374954
1283	C	0.64028	0.904898	0.376952
1284	C	0.661404	0.915029	0.338289
1285	N	0.650117	0.894174	0.635494
1286	N	0.622222	0.866063	0.634539
1287	N	0.649866	0.921672	0.41673
1288	H	0.63537	0.914179	0.44302
1289	H	0.67076	0.942375	0.419689
1290	H	0.595846	0.865069	0.403905
1291	C	0.857106	0.762919	0.335815
1292	C	0.877428	0.774257	0.374732
1293	C	0.907864	0.773845	0.376777
1294	C	0.918187	0.763068	0.338059
1295	N	0.89743	0.753696	0.635167
1296	N	0.869301	0.753447	0.634114
1297	N	0.924479	0.78082	0.416672
1298	H	0.916876	0.787669	0.443004
1299	H	0.945198	0.780664	0.419679
1300	H	0.867927	0.778274	0.403702
1301	C	0.752577	0.597289	0.335757
1302	C	0.741382	0.606415	0.374698
1303	C	0.741823	0.637279	0.376659
1304	C	0.752593	0.658196	0.337772
1305	N	0.761802	0.646766	0.634809
1306	N	0.76197	0.618841	0.633915
1307	N	0.734947	0.647017	0.416547
1308	H	0.72812	0.632609	0.442923
1309	H	0.735146	0.667912	0.41951
1310	H	0.737424	0.592966	0.403722
1311	C	0.91831	0.658474	0.336157
1312	C	0.909295	0.63797	0.374873
1313	C	0.878361	0.60761	0.376709
1314	C	0.857387	0.597679	0.337877
1315	N	0.868812	0.618486	0.635076
1316	N	0.896753	0.646562	0.634289
1317	N	0.868658	0.5908	0.416456
1318	H	0.883049	0.5983	0.442852
1319	H	0.847655	0.570221	0.419436
1320	H	0.922765	0.64741	0.403888
1321	C	0.527452	0.765252	0.014022
1322	C	0.546784	0.80087	0.012902
1323	C	0.58163	0.818871	0.006514
1324	C	0.598662	0.800803	0.004424
1325	C	0.581685	0.765729	0.674067
1326	C	0.546718	0.748906	0.67924
1327	H	0.535715	0.814966	0.014316
1328	O	0.632655	0.81782	0.005049
1329	C	0.991349	0.747222	0.014075
1330	C	0.97208	0.76357	0.679409
1331	C	0.937107	0.746757	0.67433
1332	C	0.920125	0.711681	0.004748
1333	C	0.937155	0.693608	0.006705
1334	C	0.972019	0.711604	0.012925
1335	O	0.886134	0.694641	0.005481
1336	H	0.983096	0.697511	0.014099
1337	H	0.639056	0.821243	0.70377
1338	H	0.879786	0.691295	0.704222
1339	H	0.535582	0.723729	0.680206
1340	H	0.983225	0.788748	0.680415
1341	C	0.750287	0.765215	0.013937
1342	C	0.714667	0.748881	0.012654
1343	C	0.696648	0.765712	0.00633
1344	C	0.714682	0.800811	0.004316
1345	C	0.749747	0.81895	0.674144
1346	C	0.766594	0.800831	0.679365
1347	H	0.700596	0.723709	0.013754
1348	O	0.697574	0.817698	0.004883
1349	C	0.768357	0.747182	0.013937
1350	C	0.752035	0.711566	0.679328
1351	C	0.768868	0.693439	0.67407
1352	C	0.803936	0.711559	0.004293
1353	C	0.821985	0.74665	0.006405
1354	C	0.803975	0.763498	0.012686
1355	O	0.820977	0.694607	0.004782
1356	H	0.818048	0.788671	0.013909
1357	H	0.694251	0.820804	0.703597
1358	H	0.824419	0.691586	0.703483
1359	H	0.791763	0.814889	0.680594
1360	H	0.726866	0.697508	0.680462
1361	C	0.750388	0.98826	0.014095
1362	C	0.766725	0.968978	0.01287
1363	C	0.749886	0.9341	0.006846
1364	C	0.714778	0.917009	0.005059
1365	C	0.696647	0.933963	0.674529
1366	C	0.714775	0.968946	0.679534
1367	H	0.791901	0.980092	0.013943
1368	O	0.697863	0.88302	0.005916
1369	C	0.768414	0.524363	0.014017
1370	C	0.804029	0.543685	0.679396
1371	C	0.822141	0.578652	0.674151
1372	C	0.803979	0.595557	0.004333
1373	C	0.768886	0.578481	0.00641
1374	C	0.752068	0.543635	0.012743
1375	O	0.820857	0.629551	0.00488
1376	H	0.726896	0.532528	0.013884
1377	H	0.694874	0.876733	0.704681
1378	H	0.823982	0.63599	0.703587
1379	H	0.700713	0.980057	0.680553
1380	H	0.818101	0.532588	0.680577
1381	C	0.661518	0.749395	0.669038
1382	C	0.641176	0.73812	0.707924
1383	C	0.610764	0.738589	0.709831
1384	C	0.600663	0.749477	0.670989
1385	N	0.621385	0.758729	0.9681
1386	N	0.649469	0.75888	0.967178
1387	N	0.594092	0.731621	0.749682
1388	H	0.601624	0.724715	0.776031
1389	H	0.573399	0.731825	0.752639
1390	H	0.650632	0.734103	0.736939
1391	C	0.766226	0.91531	0.669679
1392	C	0.777642	0.90616	0.708333
1393	C	0.777025	0.875202	0.710101
1394	C	0.765969	0.854184	0.671296
1395	N	0.756622	0.865755	0.968599
1396	N	0.756537	0.893717	0.967836
1397	N	0.784104	0.865467	0.749841
1398	H	0.791001	0.879843	0.776257
1399	H	0.783647	0.844446	0.752808
1400	H	0.781679	0.919595	0.737381
1401	C	0.600483	0.854015	0.669554
1402	C	0.609411	0.874482	0.708289
1403	C	0.64028	0.904898	0.710283
1404	C	0.661404	0.915029	0.67162
1405	N	0.650117	0.894174	0.968829
1406	N	0.622222	0.866063	0.967873
1407	N	0.649866	0.921672	0.750064
1408	H	0.63537	0.914179	0.776355
1409	H	0.67076	0.942375	0.753024
1410	H	0.595846	0.865069	0.737239
1411	C	0.857106	0.762919	0.669149
1412	C	0.877428	0.774257	0.708066
1413	C	0.907864	0.773845	0.710111
1414	C	0.918187	0.763068	0.671394
1415	N	0.89743	0.753696	0.968498
1416	N	0.869301	0.753447	0.967445
1417	N	0.924479	0.78082	0.750003
1418	H	0.916876	0.787669	0.776335
1419	H	0.945198	0.780664	0.75301
1420	H	0.867927	0.778274	0.737037
1421	C	0.752577	0.597289	0.669089
1422	C	0.741382	0.606415	0.708032
1423	C	0.741823	0.637279	0.709993
1424	C	0.752593	0.658196	0.671103
1425	N	0.761802	0.646766	0.968143
1426	N	0.76197	0.618841	0.967249
1427	N	0.734947	0.647017	0.749878
1428	H	0.72812	0.632609	0.776257
1429	H	0.735146	0.667912	0.752841
1430	H	0.737424	0.592966	0.737057
1431	C	0.91831	0.658474	0.66949
1432	C	0.909295	0.63797	0.708208
1433	C	0.878361	0.60761	0.710044
1434	C	0.857387	0.597679	0.671208
1435	N	0.868812	0.618486	0.96841
1436	N	0.896753	0.646562	0.96762
1437	N	0.868658	0.5908	0.74979
1438	H	0.883049	0.5983	0.776186
1439	H	0.847655	0.570221	0.752767
1440	H	0.922765	0.64741	0.737219
