data_C432H216N360_2018-02-15_10:37:49
#******************************************
#
# CIF file created by Zeo++
# Zeo++ is an open source package to
# analyze microporous materials
#
#*******************************************

_cell_length_a		44.3412   
_cell_length_b		44.3457   
_cell_length_c		29.4428   
_cell_angle_alpha		90   
_cell_angle_beta		90   
_cell_angle_gamma		120.01   

_symmetry_space_group_name_H-M		'P1'
_symmetry_Int_Tables_number		1
_symmetry_cell_setting		Monoclinic

loop_
_symmetry_equiv_pos_as_xyz
'+x,+y,+z'

loop_
_atom_site_label
_atom_site_type_symbol
_atom_site_fract_x
_atom_site_fract_y
_atom_site_fract_z
1	N	0.138841	0.071998	0.047032
2	C	0.103508	0.054351	0.049787
3	H	0.091756	0.048635	0.080915
4	N	0.138841	0.571998	0.047032
5	C	0.103508	0.55435	0.049787
6	H	0.091757	0.548637	0.080915
7	C	0.246623	0.152235	0.010404
8	N	0.211197	0.134495	0.009603
9	N	0.263612	0.134013	0.010358
10	C	0.331121	0.08401	0.011978
11	N	0.284185	0.085466	0.049092
12	C	0.314355	0.084594	0.052801
13	N	0.328061	0.087577	0.094788
14	H	0.349511	0.087108	0.099449
15	H	0.315706	0.088504	0.121559
16	C	0.267887	0.188681	0.012139
17	C	0.330833	0.252066	0.009731
18	N	0.316143	0.235661	0.049433
19	C	0.285068	0.205502	0.053009
20	N	0.274226	0.191763	0.094951
21	H	0.252363	0.170227	0.099512
22	H	0.28746	0.204064	0.121778
23	C	0.246624	0.652237	0.010404
24	N	0.211197	0.634495	0.009603
25	N	0.263613	0.634013	0.010358
26	C	0.331122	0.584011	0.011978
27	N	0.284185	0.585467	0.049092
28	C	0.314355	0.584595	0.052801
29	N	0.32806	0.587576	0.094788
30	H	0.349511	0.587108	0.099449
31	H	0.315708	0.588506	0.121559
32	C	0.267888	0.688681	0.012139
33	C	0.330833	0.752066	0.009731
34	N	0.316144	0.735662	0.049433
35	C	0.285068	0.705501	0.053009
36	N	0.274226	0.691762	0.094951
37	H	0.252364	0.670229	0.099512
38	H	0.28746	0.704064	0.121778
39	N	0.029235	0.043439	0.009337
40	C	0.047185	0.025965	0.009354
41	N	0.029221	0.490536	0.009327
42	C	0.156599	0.080657	0.340369
43	C	0.083836	0.044287	0.342722
44	N	0.101593	0.052966	0.302797
45	C	0.13704	0.070674	0.299423
46	N	0.151368	0.07769	0.257399
47	H	0.176429	0.090275	0.252922
48	H	0.136678	0.070269	0.230501
49	N	0.029235	0.043439	0.342671
50	C	0.047185	0.025965	0.342688
51	N	0.029221	0.490536	0.342658
52	C	0.156599	0.080657	0.673703
53	N	0.138841	0.071998	0.380365
54	C	0.103508	0.054351	0.383119
55	C	0.083836	0.044287	0.676053
56	N	0.101593	0.052966	0.636128
57	C	0.13704	0.070674	0.632756
58	H	0.091756	0.048635	0.414247
59	N	0.151368	0.07769	0.590732
60	H	0.176429	0.090275	0.586256
61	H	0.136678	0.070269	0.563836
62	N	0.029235	0.043439	0.676006
63	C	0.047185	0.025965	0.676023
64	N	0.029221	0.490536	0.675992
65	C	0.156599	0.080657	0.007034
66	N	0.138841	0.071998	0.713699
67	C	0.103508	0.054351	0.716454
68	C	0.083836	0.044287	0.009388
69	N	0.101593	0.052966	0.969463
70	C	0.13704	0.070674	0.96609
71	H	0.091756	0.048635	0.747582
72	N	0.151368	0.07769	0.924067
73	H	0.176429	0.090275	0.91959
74	H	0.136678	0.070269	0.897167
75	N	0.029236	0.543439	0.009337
76	C	0.047185	0.525965	0.009354
77	N	0.029222	0.990538	0.009327
78	C	0.156599	0.580657	0.340369
79	C	0.083837	0.544288	0.342722
80	N	0.101594	0.552968	0.302797
81	C	0.137041	0.570676	0.299423
82	N	0.151368	0.577691	0.257399
83	H	0.176429	0.590274	0.252922
84	H	0.136679	0.570269	0.230501
85	N	0.029236	0.543439	0.342671
86	C	0.047185	0.525965	0.342688
87	N	0.029222	0.990538	0.342658
88	C	0.156599	0.580657	0.673703
89	N	0.138841	0.571998	0.380365
90	C	0.103508	0.55435	0.383119
91	C	0.083837	0.544288	0.676053
92	N	0.101594	0.552968	0.636128
93	C	0.137041	0.570676	0.632756
94	H	0.091757	0.548637	0.414247
95	N	0.151368	0.577691	0.590732
96	H	0.176429	0.590274	0.586256
97	H	0.136679	0.570269	0.563836
98	N	0.029236	0.543439	0.676006
99	C	0.047185	0.525965	0.676023
100	N	0.029222	0.990538	0.675992
101	C	0.156599	0.580657	0.007034
102	N	0.138841	0.571998	0.713699
103	C	0.103508	0.55435	0.716454
104	C	0.083837	0.544288	0.009388
105	N	0.101594	0.552968	0.969463
106	C	0.137041	0.570676	0.96609
107	H	0.091757	0.548637	0.747582
108	N	0.151368	0.577691	0.924067
109	H	0.176429	0.590274	0.91959
110	H	0.136679	0.570269	0.897167
111	C	0.193292	0.098949	0.008563
112	N	0.21111	0.081216	0.008237
113	C	0.246529	0.098804	0.009221
114	N	0.315769	0.08432	0.305448
115	C	0.284387	0.082579	0.302444
116	C	0.267682	0.083556	0.009368
117	H	0.275918	0.085545	0.271369
118	N	0.283734	0.203996	0.305657
119	C	0.313302	0.235451	0.302665
120	H	0.324973	0.243729	0.271683
121	C	0.246623	0.152235	0.343738
122	N	0.211197	0.134495	0.342936
123	C	0.193292	0.098949	0.341897
124	N	0.21111	0.081216	0.341571
125	C	0.246529	0.098804	0.342556
126	N	0.263612	0.134013	0.34369
127	C	0.331121	0.08401	0.34531
128	N	0.315769	0.08432	0.638781
129	C	0.284387	0.082579	0.635779
130	C	0.267682	0.083556	0.342702
131	N	0.284185	0.085466	0.382426
132	C	0.314355	0.084594	0.386135
133	H	0.275918	0.085545	0.604701
134	N	0.328061	0.087577	0.428122
135	H	0.349511	0.087108	0.432782
136	H	0.315706	0.088504	0.454892
137	C	0.267887	0.188681	0.345473
138	N	0.283734	0.203996	0.638992
139	C	0.313302	0.235451	0.635999
140	C	0.330833	0.252066	0.343065
141	N	0.316143	0.235661	0.382766
142	C	0.285068	0.205502	0.386342
143	H	0.324973	0.243729	0.605017
144	N	0.274226	0.191763	0.428285
145	H	0.252363	0.170227	0.432846
146	H	0.28746	0.204064	0.45511
147	C	0.246623	0.152235	0.677072
148	N	0.211197	0.134495	0.676271
149	C	0.193292	0.098949	0.675231
150	N	0.21111	0.081216	0.674902
151	C	0.246529	0.098804	0.675887
152	N	0.263612	0.134013	0.677025
153	C	0.331121	0.08401	0.678645
154	N	0.315769	0.08432	0.972116
155	C	0.284387	0.082579	0.96911
156	C	0.267682	0.083556	0.676036
157	N	0.284185	0.085466	0.715757
158	C	0.314355	0.084594	0.719466
159	H	0.275918	0.085545	0.938036
160	N	0.328061	0.087577	0.761453
161	H	0.349511	0.087108	0.766116
162	H	0.315706	0.088504	0.788227
163	C	0.267887	0.188681	0.678804
164	N	0.283734	0.203996	0.972323
165	C	0.313302	0.235451	0.969331
166	C	0.330833	0.252066	0.676396
167	N	0.316143	0.235661	0.716101
168	C	0.285068	0.205502	0.719674
169	H	0.324973	0.243729	0.938348
170	N	0.274226	0.191763	0.761616
171	H	0.252363	0.170227	0.766177
172	H	0.28746	0.204064	0.788444
173	C	0.193292	0.598949	0.008563
174	N	0.21111	0.581217	0.008237
175	C	0.24653	0.598805	0.009221
176	N	0.315769	0.584321	0.305448
177	C	0.284387	0.582579	0.302444
178	C	0.267682	0.583556	0.009368
179	H	0.275919	0.585545	0.271369
180	N	0.283734	0.703996	0.305657
181	C	0.313303	0.735451	0.302665
182	H	0.324974	0.74373	0.271683
183	C	0.246624	0.652237	0.343738
184	N	0.211197	0.634495	0.342936
185	C	0.193292	0.598949	0.341897
186	N	0.21111	0.581217	0.341571
187	C	0.24653	0.598805	0.342556
188	N	0.263613	0.634013	0.34369
189	C	0.331122	0.584011	0.34531
190	N	0.315769	0.584321	0.638781
191	C	0.284387	0.582579	0.635779
192	C	0.267682	0.583556	0.342702
193	N	0.284185	0.585467	0.382426
194	C	0.314355	0.584595	0.386135
195	H	0.275919	0.585545	0.604701
196	N	0.32806	0.587576	0.428122
197	H	0.349511	0.587108	0.432782
198	H	0.315708	0.588506	0.454892
199	C	0.267888	0.688681	0.345473
200	N	0.283734	0.703996	0.638992
201	C	0.313303	0.735451	0.635999
202	C	0.330833	0.752066	0.343065
203	N	0.316144	0.735662	0.382766
204	C	0.285068	0.705501	0.386342
205	H	0.324974	0.74373	0.605017
206	N	0.274226	0.691762	0.428285
207	H	0.252364	0.670229	0.432846
208	H	0.28746	0.704064	0.45511
209	C	0.246624	0.652237	0.677072
210	N	0.211197	0.634495	0.676271
211	C	0.193292	0.598949	0.675231
212	N	0.21111	0.581217	0.674902
213	C	0.24653	0.598805	0.675887
214	N	0.263613	0.634013	0.677025
215	C	0.331122	0.584011	0.678645
216	N	0.315769	0.584321	0.972116
217	C	0.284387	0.582579	0.96911
218	C	0.267682	0.583556	0.676036
219	N	0.284185	0.585467	0.715757
220	C	0.314355	0.584595	0.719466
221	H	0.275919	0.585545	0.938036
222	N	0.32806	0.587576	0.761453
223	H	0.349511	0.587108	0.766116
224	H	0.315708	0.588506	0.788227
225	C	0.267888	0.688681	0.678804
226	N	0.283734	0.703996	0.972323
227	C	0.313303	0.735451	0.969331
228	C	0.330833	0.752066	0.676396
229	N	0.316144	0.735662	0.716101
230	C	0.285068	0.705501	0.719674
231	H	0.324974	0.74373	0.938348
232	N	0.274226	0.691762	0.761616
233	H	0.252364	0.670229	0.766177
234	H	0.28746	0.704064	0.788444
235	C	0.36757	0.099141	0.010455
236	N	0.385284	0.081438	0.009567
237	N	0.385822	0.134355	0.010448
238	C	0.420611	0.273183	0.010377
239	C	0.367254	0.273251	0.009374
240	N	0.385393	0.256186	0.010434
241	C	0.367572	0.599141	0.010455
242	N	0.385286	0.581438	0.009567
243	N	0.385822	0.634354	0.010448
244	C	0.42061	0.773183	0.010377
245	C	0.367256	0.773253	0.009374
246	N	0.385393	0.756186	0.010434
247	C	0.420838	0.099072	0.008583
248	C	0.421034	0.152471	0.009344
249	C	0.420643	0.326495	0.008556
250	N	0.385083	0.308669	0.008386
251	C	0.36757	0.099141	0.343789
252	N	0.385284	0.081438	0.342899
253	C	0.420838	0.099072	0.341917
254	C	0.421034	0.152471	0.342678
255	N	0.385822	0.134355	0.343782
256	C	0.420611	0.273183	0.343711
257	C	0.420643	0.326495	0.34189
258	N	0.385083	0.308669	0.34172
259	C	0.367254	0.273251	0.342709
260	N	0.385393	0.256186	0.343768
261	C	0.36757	0.099141	0.677123
262	N	0.385284	0.081438	0.676233
263	C	0.420838	0.099072	0.675248
264	C	0.421034	0.152471	0.676009
265	N	0.385822	0.134355	0.677116
266	C	0.420611	0.273183	0.677045
267	C	0.420643	0.326495	0.675221
268	N	0.385083	0.308669	0.675055
269	C	0.367254	0.273251	0.67604
270	N	0.385393	0.256186	0.677099
271	C	0.420837	0.599071	0.008583
272	C	0.421034	0.652471	0.009344
273	C	0.420644	0.826494	0.008556
274	N	0.385084	0.808669	0.008386
275	C	0.367572	0.599141	0.343789
276	N	0.385286	0.581438	0.342899
277	C	0.420837	0.599071	0.341917
278	C	0.421034	0.652471	0.342678
279	N	0.385822	0.634354	0.343782
280	C	0.42061	0.773183	0.343711
281	C	0.420644	0.826494	0.34189
282	N	0.385084	0.808669	0.34172
283	C	0.367256	0.773253	0.342709
284	N	0.385393	0.756186	0.343768
285	C	0.367572	0.599141	0.677123
286	N	0.385286	0.581438	0.676233
287	C	0.420837	0.599071	0.675248
288	C	0.421034	0.652471	0.676009
289	N	0.385822	0.634354	0.677116
290	C	0.42061	0.773183	0.677045
291	C	0.420644	0.826494	0.675221
292	N	0.385084	0.808669	0.675055
293	C	0.367256	0.773253	0.67604
294	N	0.385393	0.756186	0.677099
295	N	0.438298	0.308602	0.009478
296	N	0.447787	0.071584	0.047039
297	C	0.465434	0.053905	0.049792
298	H	0.471162	0.047882	0.08092
299	N	0.448087	0.380936	0.047021
300	C	0.46578	0.416267	0.049777
301	H	0.471776	0.428016	0.080907
302	C	0.435745	0.251887	0.011885
303	C	0.436275	0.18886	0.009523
304	N	0.434358	0.203564	0.049139
305	C	0.435232	0.234608	0.052756
306	N	0.432167	0.245315	0.094717
307	H	0.432783	0.267306	0.099351
308	H	0.431432	0.232146	0.121515
309	N	0.438299	0.808604	0.009478
310	N	0.447788	0.571584	0.047039
311	C	0.465434	0.553905	0.049792
312	H	0.471162	0.547882	0.08092
313	N	0.448089	0.880939	0.047021
314	C	0.46578	0.916266	0.049777
315	H	0.471777	0.928016	0.080907
316	C	0.435746	0.751889	0.011885
317	C	0.436276	0.688861	0.009523
318	N	0.434358	0.703564	0.049139
319	C	0.435233	0.734608	0.052756
320	N	0.432168	0.745316	0.094717
321	H	0.432783	0.767305	0.099351
322	H	0.431432	0.732147	0.121515
323	C	0.746622	0.152235	0.010404
324	N	0.711197	0.134495	0.009603
325	N	0.763612	0.134013	0.010358
326	C	0.867573	0.099141	0.010455
327	N	0.885287	0.081438	0.009567
328	N	0.885822	0.134355	0.010448
329	C	0.920611	0.273183	0.010377
330	N	0.938298	0.308602	0.009478
331	C	0.867254	0.273251	0.009374
332	N	0.885393	0.256186	0.010434
333	N	0.638841	0.071998	0.047032
334	C	0.603508	0.054351	0.049787
335	H	0.591757	0.048635	0.080915
336	N	0.947789	0.071584	0.047039
337	C	0.965434	0.053905	0.049792
338	H	0.971162	0.047882	0.08092
339	N	0.948089	0.380936	0.047021
340	C	0.96578	0.416267	0.049777
341	H	0.971776	0.428016	0.080907
342	C	0.831121	0.08401	0.011978
343	N	0.784185	0.085466	0.049092
344	C	0.814355	0.084594	0.052801
345	N	0.828061	0.087577	0.094788
346	H	0.849511	0.087108	0.099449
347	H	0.815708	0.088504	0.121559
348	C	0.935745	0.251887	0.011885
349	C	0.936277	0.18886	0.009523
350	N	0.934358	0.203564	0.049139
351	C	0.935232	0.234608	0.052756
352	N	0.932167	0.245315	0.094717
353	H	0.932783	0.267306	0.099351
354	H	0.931432	0.232146	0.121515
355	C	0.767888	0.188681	0.012139
356	C	0.830833	0.252066	0.009731
357	N	0.816143	0.235661	0.049433
358	C	0.785068	0.205502	0.053009
359	N	0.774226	0.191763	0.094951
360	H	0.752363	0.170227	0.099512
361	H	0.787461	0.204064	0.121778
362	C	0.746625	0.652237	0.010404
363	N	0.711197	0.634495	0.009603
364	N	0.763614	0.634013	0.010358
365	C	0.867573	0.599141	0.010455
366	N	0.885287	0.581438	0.009567
367	N	0.885822	0.634354	0.010448
368	C	0.920611	0.773183	0.010377
369	N	0.938299	0.808604	0.009478
370	C	0.867255	0.773253	0.009374
371	N	0.885393	0.756186	0.010434
372	N	0.638841	0.571998	0.047032
373	C	0.603508	0.55435	0.049787
374	H	0.591758	0.548637	0.080915
375	N	0.947789	0.571584	0.047039
376	C	0.965434	0.553905	0.049792
377	H	0.971162	0.547882	0.08092
378	N	0.94809	0.880939	0.047021
379	C	0.965779	0.916266	0.049777
380	H	0.971776	0.928016	0.080907
381	C	0.831122	0.584011	0.011978
382	N	0.784185	0.585467	0.049092
383	C	0.814355	0.584595	0.052801
384	N	0.828061	0.587576	0.094788
385	H	0.84951	0.587108	0.099449
386	H	0.815709	0.588506	0.121559
387	C	0.935746	0.751889	0.011885
388	C	0.936277	0.688861	0.009523
389	N	0.934358	0.703564	0.049139
390	C	0.935232	0.734608	0.052756
391	N	0.932169	0.745316	0.094717
392	H	0.932783	0.767305	0.099351
393	H	0.931432	0.732147	0.121515
394	C	0.767888	0.688681	0.012139
395	C	0.830833	0.752066	0.009731
396	N	0.816144	0.735662	0.049433
397	C	0.785068	0.705501	0.053009
398	N	0.774226	0.691762	0.094951
399	H	0.752364	0.670229	0.099512
400	H	0.787461	0.704064	0.121778
401	C	0.493789	0.472583	0.009347
402	N	0.476321	0.490539	0.009334
403	C	0.493803	0.025967	0.009357
404	N	0.4386	0.134627	0.008332
405	C	0.439113	0.080665	0.340375
406	C	0.475484	0.04429	0.342726
407	N	0.466793	0.053354	0.3028
408	C	0.449087	0.071086	0.299429
409	N	0.442064	0.078393	0.257407
410	H	0.429494	0.090881	0.252935
411	H	0.449494	0.071138	0.230507
412	C	0.439039	0.363182	0.340355
413	C	0.475455	0.435938	0.342712
414	N	0.46642	0.418183	0.302785
415	C	0.448673	0.382739	0.299411
416	N	0.441397	0.368413	0.257386
417	H	0.428889	0.343354	0.25291
418	H	0.44868	0.3831	0.230488
419	N	0.435492	0.236141	0.305456
420	C	0.437283	0.206529	0.302561
421	H	0.434346	0.195077	0.271504
422	C	0.493789	0.472583	0.342681
423	N	0.476321	0.490539	0.342668
424	C	0.493803	0.025967	0.342692
425	N	0.4386	0.134627	0.341663
426	N	0.438298	0.308602	0.342811
427	C	0.439113	0.080665	0.67371
428	N	0.447787	0.071584	0.380372
429	C	0.465434	0.053905	0.383126
430	C	0.475484	0.04429	0.676057
431	N	0.466793	0.053354	0.636135
432	C	0.449087	0.071086	0.632763
433	H	0.471162	0.047882	0.414254
434	N	0.442064	0.078393	0.590739
435	H	0.429494	0.090881	0.586269
436	H	0.449494	0.071138	0.563839
437	C	0.439039	0.363182	0.673689
438	N	0.448087	0.380936	0.380355
439	C	0.46578	0.416267	0.383109
440	C	0.475455	0.435938	0.676043
441	N	0.46642	0.418183	0.636118
442	C	0.448673	0.382739	0.632746
443	H	0.471776	0.428016	0.414241
444	N	0.441397	0.368413	0.590718
445	H	0.428889	0.343354	0.586242
446	H	0.44868	0.3831	0.563822
447	C	0.435745	0.251887	0.345219
448	N	0.435492	0.236141	0.638788
449	C	0.437283	0.206529	0.635894
450	C	0.436275	0.18886	0.342855
451	N	0.434358	0.203564	0.382474
452	C	0.435232	0.234608	0.386091
453	H	0.434346	0.195077	0.604837
454	N	0.432167	0.245315	0.42805
455	H	0.432783	0.267306	0.432683
456	H	0.431432	0.232146	0.454848
457	C	0.493789	0.472583	0.676016
458	N	0.476321	0.490539	0.675999
459	C	0.493803	0.025967	0.676026
460	N	0.4386	0.134627	0.674997
461	N	0.438298	0.308602	0.676145
462	C	0.439113	0.080665	0.007044
463	N	0.447787	0.071584	0.713706
464	C	0.465434	0.053905	0.716457
465	C	0.475484	0.04429	0.009391
466	N	0.466793	0.053354	0.969466
467	C	0.449087	0.071086	0.966097
468	H	0.471162	0.047882	0.747585
469	N	0.442064	0.078393	0.924073
470	H	0.429494	0.090881	0.9196
471	H	0.449494	0.071138	0.897174
472	C	0.439039	0.363182	0.007024
473	N	0.448087	0.380936	0.713686
474	C	0.46578	0.416267	0.716444
475	C	0.475455	0.435938	0.009378
476	N	0.46642	0.418183	0.969453
477	C	0.448673	0.382739	0.966077
478	H	0.471776	0.428016	0.747572
479	N	0.441397	0.368413	0.924053
480	H	0.428889	0.343354	0.919576
481	H	0.44868	0.3831	0.897153
482	C	0.435745	0.251887	0.678553
483	N	0.435492	0.236141	0.972122
484	C	0.437283	0.206529	0.969229
485	C	0.436275	0.18886	0.676189
486	N	0.434358	0.203564	0.715805
487	C	0.435232	0.234608	0.719422
488	H	0.434346	0.195077	0.938172
489	N	0.432167	0.245315	0.761382
490	H	0.432783	0.267306	0.766018
491	H	0.431432	0.232146	0.788183
492	C	0.493791	0.972586	0.009347
493	N	0.476323	0.990541	0.009334
494	C	0.493804	0.525968	0.009357
495	N	0.438601	0.634628	0.008332
496	C	0.439114	0.580665	0.340375
497	C	0.475485	0.544291	0.342726
498	N	0.466795	0.553356	0.3028
499	C	0.449087	0.571087	0.299429
500	N	0.442065	0.578394	0.257407
501	H	0.429496	0.590881	0.252934
502	H	0.449494	0.571139	0.230507
503	C	0.439041	0.863184	0.340355
504	C	0.475455	0.935938	0.342712
505	N	0.466421	0.918183	0.302785
506	C	0.448675	0.882741	0.299411
507	N	0.441396	0.868413	0.257386
508	H	0.428891	0.843356	0.25291
509	H	0.448681	0.8831	0.230488
510	N	0.435491	0.736142	0.305456
511	C	0.437282	0.70653	0.302561
512	H	0.434347	0.695077	0.271504
513	C	0.493791	0.972586	0.342681
514	N	0.476323	0.990541	0.342668
515	C	0.493804	0.525968	0.342692
516	N	0.438601	0.634628	0.341663
517	N	0.438299	0.808604	0.342811
518	C	0.439114	0.580665	0.67371
519	N	0.447788	0.571584	0.380372
520	C	0.465434	0.553905	0.383126
521	C	0.475485	0.544291	0.676057
522	N	0.466795	0.553356	0.636132
523	C	0.449087	0.571087	0.632763
524	H	0.471162	0.547882	0.414254
525	N	0.442065	0.578394	0.590739
526	H	0.429496	0.590881	0.586269
527	H	0.449494	0.571139	0.563839
528	C	0.439041	0.863184	0.673689
529	N	0.448089	0.880939	0.380355
530	C	0.46578	0.916266	0.383109
531	C	0.475455	0.935938	0.676043
532	N	0.466421	0.918183	0.636118
533	C	0.448675	0.882741	0.632746
534	H	0.471777	0.928016	0.414241
535	N	0.441396	0.868413	0.590718
536	H	0.428891	0.843356	0.586242
537	H	0.448681	0.8831	0.563822
538	C	0.435746	0.751889	0.345219
539	N	0.435491	0.736142	0.638788
540	C	0.437282	0.70653	0.635894
541	C	0.436276	0.688861	0.342855
542	N	0.434358	0.703564	0.382474
543	C	0.435233	0.734608	0.386091
544	H	0.434347	0.695077	0.604837
545	N	0.432168	0.745316	0.42805
546	H	0.432783	0.767305	0.432683
547	H	0.431432	0.732147	0.454848
548	C	0.493791	0.972586	0.676016
549	N	0.476323	0.990541	0.675999
550	C	0.493804	0.525968	0.676026
551	N	0.438601	0.634628	0.674997
552	N	0.438299	0.808604	0.676145
553	C	0.439114	0.580665	0.007044
554	N	0.447788	0.571584	0.713706
555	C	0.465434	0.553905	0.716457
556	C	0.475485	0.544291	0.009391
557	N	0.466795	0.553356	0.969466
558	C	0.449087	0.571087	0.966097
559	H	0.471162	0.547882	0.747585
560	N	0.442065	0.578394	0.924073
561	H	0.429496	0.590881	0.9196
562	H	0.449494	0.571139	0.897174
563	C	0.439041	0.863184	0.007024
564	N	0.448089	0.880939	0.713686
565	C	0.46578	0.916266	0.716444
566	C	0.475455	0.935938	0.009378
567	N	0.466421	0.918183	0.969453
568	C	0.448675	0.882741	0.966077
569	H	0.471777	0.928016	0.747572
570	N	0.441396	0.868413	0.924053
571	H	0.428891	0.843356	0.919576
572	H	0.448681	0.8831	0.897153
573	C	0.435746	0.751889	0.678553
574	N	0.435491	0.736142	0.972122
575	C	0.437282	0.70653	0.969229
576	C	0.436276	0.688861	0.676189
577	N	0.434358	0.703564	0.715805
578	C	0.435233	0.734608	0.719422
579	H	0.434347	0.695077	0.938172
580	N	0.432168	0.745316	0.761382
581	H	0.432783	0.767305	0.766018
582	H	0.431432	0.732147	0.788183
583	C	0.993789	0.472583	0.009347
584	N	0.976321	0.490539	0.009334
585	C	0.993803	0.025967	0.009357
586	N	0.529236	0.043439	0.009337
587	C	0.547186	0.025965	0.009354
588	N	0.529221	0.490536	0.009327
589	C	0.693291	0.098949	0.008563
590	N	0.711109	0.081216	0.008237
591	C	0.74653	0.098804	0.009221
592	C	0.920838	0.099072	0.008583
593	N	0.9386	0.134627	0.008332
594	C	0.921034	0.152471	0.009344
595	C	0.920645	0.326495	0.008556
596	N	0.885083	0.308669	0.008386
597	C	0.6566	0.080657	0.340369
598	C	0.583835	0.044287	0.342722
599	N	0.601593	0.052966	0.302797
600	C	0.63704	0.070674	0.299423
601	N	0.651368	0.07769	0.257399
602	H	0.676429	0.090275	0.252922
603	H	0.63668	0.070269	0.230501
604	C	0.939113	0.080665	0.340375
605	C	0.975484	0.04429	0.342726
606	N	0.966795	0.053354	0.3028
607	C	0.949087	0.071086	0.299429
608	N	0.942064	0.078393	0.257407
609	H	0.929497	0.090881	0.252935
610	H	0.949494	0.071138	0.230507
611	C	0.939039	0.363182	0.340355
612	C	0.975455	0.435938	0.342712
613	N	0.96642	0.418183	0.302785
614	C	0.948673	0.382739	0.299411
615	N	0.941397	0.368413	0.257386
616	H	0.928889	0.343354	0.25291
617	H	0.94868	0.3831	0.230488
618	N	0.815769	0.08432	0.305448
619	C	0.784387	0.082579	0.302444
620	C	0.767682	0.083556	0.009368
621	H	0.775918	0.085545	0.271369
622	N	0.935492	0.236141	0.305456
623	C	0.937283	0.206529	0.302561
624	H	0.934346	0.195077	0.271504
625	N	0.783735	0.203996	0.305657
626	C	0.813302	0.235451	0.302665
627	H	0.824973	0.243729	0.271683
628	C	0.993789	0.472583	0.342681
629	N	0.976321	0.490539	0.342668
630	C	0.993803	0.025967	0.342692
631	N	0.529236	0.043439	0.342671
632	C	0.547186	0.025965	0.342688
633	N	0.529221	0.490536	0.342658
634	C	0.746622	0.152235	0.343738
635	N	0.711197	0.134495	0.342936
636	C	0.693291	0.098949	0.341897
637	N	0.711109	0.081216	0.341571
638	C	0.74653	0.098804	0.342556
639	N	0.763612	0.134013	0.34369
640	C	0.867573	0.099141	0.343789
641	N	0.885287	0.081438	0.342899
642	C	0.920838	0.099072	0.341917
643	N	0.9386	0.134627	0.341663
644	C	0.921034	0.152471	0.342678
645	N	0.885822	0.134355	0.343782
646	C	0.920611	0.273183	0.343711
647	N	0.938298	0.308602	0.342811
648	C	0.920645	0.326495	0.34189
649	N	0.885083	0.308669	0.34172
650	C	0.867254	0.273251	0.342709
651	N	0.885393	0.256186	0.343768
652	C	0.6566	0.080657	0.673703
653	N	0.638841	0.071998	0.380365
654	C	0.603508	0.054351	0.383119
655	C	0.583835	0.044287	0.676053
656	N	0.601593	0.052966	0.636128
657	C	0.63704	0.070674	0.632756
658	H	0.591757	0.048635	0.414247
659	N	0.651368	0.07769	0.590732
660	H	0.676429	0.090275	0.586256
661	H	0.63668	0.070269	0.563836
662	C	0.939113	0.080665	0.67371
663	N	0.947789	0.071584	0.380372
664	C	0.965434	0.053905	0.383126
665	C	0.975484	0.04429	0.676057
666	N	0.966795	0.053354	0.636135
667	C	0.949087	0.071086	0.632763
668	H	0.971162	0.047882	0.414254
669	N	0.942064	0.078393	0.590739
670	H	0.929497	0.090881	0.586269
671	H	0.949494	0.071138	0.563839
672	C	0.939039	0.363182	0.673689
673	N	0.948089	0.380936	0.380355
674	C	0.96578	0.416267	0.383109
675	C	0.975455	0.435938	0.676043
676	N	0.96642	0.418183	0.636118
677	C	0.948673	0.382739	0.632746
678	H	0.971776	0.428016	0.414241
679	N	0.941397	0.368413	0.590718
680	H	0.928889	0.343354	0.586242
681	H	0.94868	0.3831	0.563822
682	C	0.831121	0.08401	0.34531
683	N	0.815769	0.08432	0.638781
684	C	0.784387	0.082579	0.635779
685	C	0.767682	0.083556	0.342702
686	N	0.784185	0.085466	0.382426
687	C	0.814355	0.084594	0.386135
688	H	0.775918	0.085545	0.604701
689	N	0.828061	0.087577	0.428122
690	H	0.849511	0.087108	0.432782
691	H	0.815708	0.088504	0.454892
692	C	0.935745	0.251887	0.345219
693	N	0.935492	0.236141	0.638788
694	C	0.937283	0.206529	0.635894
695	C	0.936277	0.18886	0.342855
696	N	0.934358	0.203564	0.382474
697	C	0.935232	0.234608	0.386091
698	H	0.934346	0.195077	0.604837
699	N	0.932167	0.245315	0.42805
700	H	0.932783	0.267306	0.432683
701	H	0.931432	0.232146	0.454848
702	C	0.767888	0.188681	0.345473
703	N	0.783735	0.203996	0.638992
704	C	0.813302	0.235451	0.635999
705	C	0.830833	0.252066	0.343065
706	N	0.816143	0.235661	0.382766
707	C	0.785068	0.205502	0.386342
708	H	0.824973	0.243729	0.605017
709	N	0.774226	0.191763	0.428285
710	H	0.752363	0.170227	0.432846
711	H	0.787461	0.204064	0.45511
712	C	0.993789	0.472583	0.676016
713	N	0.976321	0.490539	0.675999
714	C	0.993803	0.025967	0.676026
715	N	0.529236	0.043439	0.676006
716	C	0.547186	0.025965	0.676023
717	N	0.529221	0.490536	0.675992
718	C	0.746622	0.152235	0.677072
719	N	0.711197	0.134495	0.676271
720	C	0.693291	0.098949	0.675231
721	N	0.711109	0.081216	0.674902
722	C	0.74653	0.098804	0.675887
723	N	0.763612	0.134013	0.677025
724	C	0.867573	0.099141	0.677123
725	N	0.885287	0.081438	0.676233
726	C	0.920838	0.099072	0.675248
727	N	0.9386	0.134627	0.674997
728	C	0.921034	0.152471	0.676009
729	N	0.885822	0.134355	0.677116
730	C	0.920611	0.273183	0.677045
731	N	0.938298	0.308602	0.676145
732	C	0.920645	0.326495	0.675221
733	N	0.885083	0.308669	0.675055
734	C	0.867254	0.273251	0.67604
735	N	0.885393	0.256186	0.677099
736	C	0.6566	0.080657	0.007034
737	N	0.638841	0.071998	0.713699
738	C	0.603508	0.054351	0.716454
739	C	0.583835	0.044287	0.009388
740	N	0.601593	0.052966	0.969463
741	C	0.63704	0.070674	0.96609
742	H	0.591757	0.048635	0.747582
743	N	0.651368	0.07769	0.924067
744	H	0.676429	0.090275	0.91959
745	H	0.63668	0.070269	0.897167
746	C	0.939113	0.080665	0.007044
747	N	0.947789	0.071584	0.713706
748	C	0.965434	0.053905	0.716457
749	C	0.975484	0.04429	0.009391
750	N	0.966795	0.053354	0.969466
751	C	0.949087	0.071086	0.966097
752	H	0.971162	0.047882	0.747585
753	N	0.942064	0.078393	0.924073
754	H	0.929497	0.090881	0.9196
755	H	0.949494	0.071138	0.897174
756	C	0.939039	0.363182	0.007024
757	N	0.948089	0.380936	0.713686
758	C	0.96578	0.416267	0.716444
759	C	0.975455	0.435938	0.009378
760	N	0.96642	0.418183	0.969453
761	C	0.948673	0.382739	0.966077
762	H	0.971776	0.428016	0.747572
763	N	0.941397	0.368413	0.924053
764	H	0.928889	0.343354	0.919576
765	H	0.94868	0.3831	0.897153
766	C	0.831121	0.08401	0.678645
767	N	0.815769	0.08432	0.972116
768	C	0.784387	0.082579	0.96911
769	C	0.767682	0.083556	0.676036
770	N	0.784185	0.085466	0.715757
771	C	0.814355	0.084594	0.719466
772	H	0.775918	0.085545	0.938036
773	N	0.828061	0.087577	0.761453
774	H	0.849511	0.087108	0.766116
775	H	0.815708	0.088504	0.788227
776	C	0.935745	0.251887	0.678553
777	N	0.935492	0.236141	0.972122
778	C	0.937283	0.206529	0.969229
779	C	0.936277	0.18886	0.676189
780	N	0.934358	0.203564	0.715805
781	C	0.935232	0.234608	0.719422
782	H	0.934346	0.195077	0.938172
783	N	0.932167	0.245315	0.761382
784	H	0.932783	0.267306	0.766018
785	H	0.931432	0.232146	0.788183
786	C	0.767888	0.188681	0.678804
787	N	0.783735	0.203996	0.972323
788	C	0.813302	0.235451	0.969331
789	C	0.830833	0.252066	0.676396
790	N	0.816143	0.235661	0.716101
791	C	0.785068	0.205502	0.719674
792	H	0.824973	0.243729	0.938348
793	N	0.774226	0.191763	0.761616
794	H	0.752363	0.170227	0.766177
795	H	0.787461	0.204064	0.788444
796	C	0.99379	0.972586	0.009347
797	N	0.976325	0.990541	0.009334
798	C	0.993804	0.525968	0.009357
799	N	0.529236	0.543439	0.009337
800	C	0.547186	0.525965	0.009354
801	N	0.529223	0.990538	0.009327
802	C	0.693293	0.598949	0.008563
803	N	0.71111	0.581217	0.008237
804	C	0.746531	0.598805	0.009221
805	C	0.920838	0.599071	0.008583
806	N	0.938601	0.634628	0.008332
807	C	0.921034	0.652471	0.009344
808	C	0.920645	0.826494	0.008556
809	N	0.885086	0.808669	0.008386
810	C	0.6566	0.580657	0.340369
811	C	0.583838	0.544288	0.342722
812	N	0.601594	0.552968	0.302797
813	C	0.637041	0.570676	0.299423
814	N	0.651368	0.577691	0.257399
815	H	0.676428	0.590274	0.252922
816	H	0.63668	0.570269	0.230501
817	C	0.939113	0.580665	0.340375
818	C	0.975484	0.544291	0.342726
819	N	0.966796	0.553356	0.3028
820	C	0.949088	0.571087	0.299429
821	N	0.942066	0.578394	0.257407
822	H	0.929497	0.590881	0.252934
823	H	0.949495	0.571139	0.230507
824	C	0.939042	0.863184	0.340355
825	C	0.975455	0.935938	0.342712
826	N	0.966422	0.918183	0.302785
827	C	0.948676	0.882741	0.299411
828	N	0.941396	0.868413	0.257386
829	H	0.928892	0.843356	0.25291
830	H	0.948682	0.8831	0.230488
831	N	0.81577	0.584321	0.305448
832	C	0.784387	0.582579	0.302444
833	C	0.767682	0.583556	0.009368
834	H	0.775918	0.585545	0.271369
835	N	0.935492	0.736142	0.305456
836	C	0.937283	0.70653	0.302561
837	H	0.934348	0.695077	0.271504
838	N	0.783735	0.703996	0.305657
839	C	0.813303	0.735451	0.302665
840	H	0.824974	0.74373	0.271683
841	C	0.99379	0.972586	0.342681
842	N	0.976325	0.990541	0.342668
843	C	0.993804	0.525968	0.342692
844	N	0.529236	0.543439	0.342671
845	C	0.547186	0.525965	0.342688
846	N	0.529223	0.990538	0.342658
847	C	0.746625	0.652237	0.343738
848	N	0.711197	0.634495	0.342936
849	C	0.693293	0.598949	0.341897
850	N	0.71111	0.581217	0.341571
851	C	0.746531	0.598805	0.342556
852	N	0.763614	0.634013	0.34369
853	C	0.867573	0.599141	0.343789
854	N	0.885287	0.581438	0.342899
855	C	0.920838	0.599071	0.341917
856	N	0.938601	0.634628	0.341663
857	C	0.921034	0.652471	0.342678
858	N	0.885822	0.634354	0.343782
859	C	0.920611	0.773183	0.343711
860	N	0.938299	0.808604	0.342811
861	C	0.920645	0.826494	0.34189
862	N	0.885086	0.808669	0.34172
863	C	0.867255	0.773253	0.342709
864	N	0.885393	0.756186	0.343768
865	C	0.6566	0.580657	0.673703
866	N	0.638841	0.571998	0.380365
867	C	0.603508	0.55435	0.383119
868	C	0.583838	0.544288	0.676053
869	N	0.601594	0.552968	0.636128
870	C	0.637041	0.570676	0.632756
871	H	0.591758	0.548637	0.414247
872	N	0.651368	0.577691	0.590732
873	H	0.676428	0.590274	0.586256
874	H	0.63668	0.570269	0.563836
875	C	0.939113	0.580665	0.67371
876	N	0.947789	0.571584	0.380372
877	C	0.965434	0.553905	0.383126
878	C	0.975484	0.544291	0.676057
879	N	0.966796	0.553356	0.636132
880	C	0.949088	0.571087	0.632763
881	H	0.971162	0.547882	0.414254
882	N	0.942066	0.578394	0.590739
883	H	0.929497	0.590881	0.586269
884	H	0.949495	0.571139	0.563839
885	C	0.939042	0.863184	0.673689
886	N	0.94809	0.880939	0.380355
887	C	0.965779	0.916266	0.383109
888	C	0.975455	0.935938	0.676043
889	N	0.966422	0.918183	0.636118
890	C	0.948676	0.882741	0.632746
891	H	0.971776	0.928016	0.414241
892	N	0.941396	0.868413	0.590718
893	H	0.928892	0.843356	0.586242
894	H	0.948682	0.8831	0.563822
895	C	0.831122	0.584011	0.34531
896	N	0.81577	0.584321	0.638781
897	C	0.784387	0.582579	0.635779
898	C	0.767682	0.583556	0.342702
899	N	0.784185	0.585467	0.382426
900	C	0.814355	0.584595	0.386135
901	H	0.775918	0.585545	0.604701
902	N	0.828061	0.587576	0.428122
903	H	0.84951	0.587108	0.432782
904	H	0.815709	0.588506	0.454892
905	C	0.935746	0.751889	0.345219
906	N	0.935492	0.736142	0.638788
907	C	0.937283	0.70653	0.635894
908	C	0.936277	0.688861	0.342855
909	N	0.934358	0.703564	0.382474
910	C	0.935232	0.734608	0.386091
911	H	0.934348	0.695077	0.604837
912	N	0.932169	0.745316	0.42805
913	H	0.932783	0.767305	0.432683
914	H	0.931432	0.732147	0.454848
915	C	0.767888	0.688681	0.345473
916	N	0.783735	0.703996	0.638992
917	C	0.813303	0.735451	0.635999
918	C	0.830833	0.752066	0.343065
919	N	0.816144	0.735662	0.382766
920	C	0.785068	0.705501	0.386342
921	H	0.824974	0.74373	0.605017
922	N	0.774226	0.691762	0.428285
923	H	0.752364	0.670229	0.432846
924	H	0.787461	0.704064	0.45511
925	C	0.99379	0.972586	0.676016
926	N	0.976325	0.990541	0.675999
927	C	0.993804	0.525968	0.676026
928	N	0.529236	0.543439	0.676006
929	C	0.547186	0.525965	0.676023
930	N	0.529223	0.990538	0.675992
931	C	0.746625	0.652237	0.677072
932	N	0.711197	0.634495	0.676271
933	C	0.693293	0.598949	0.675231
934	N	0.71111	0.581217	0.674902
935	C	0.746531	0.598805	0.675887
936	N	0.763614	0.634013	0.677025
937	C	0.867573	0.599141	0.677123
938	N	0.885287	0.581438	0.676233
939	C	0.920838	0.599071	0.675248
940	N	0.938601	0.634628	0.674997
941	C	0.921034	0.652471	0.676009
942	N	0.885822	0.634354	0.677116
943	C	0.920611	0.773183	0.677045
944	N	0.938299	0.808604	0.676145
945	C	0.920645	0.826494	0.675221
946	N	0.885086	0.808669	0.675055
947	C	0.867255	0.773253	0.67604
948	N	0.885393	0.756186	0.677099
949	C	0.6566	0.580657	0.007034
950	N	0.638841	0.571998	0.713699
951	C	0.603508	0.55435	0.716454
952	C	0.583838	0.544288	0.009388
953	N	0.601594	0.552968	0.969463
954	C	0.637041	0.570676	0.96609
955	H	0.591758	0.548637	0.747582
956	N	0.651368	0.577691	0.924067
957	H	0.676428	0.590274	0.91959
958	H	0.63668	0.570269	0.897167
959	C	0.939113	0.580665	0.007044
960	N	0.947789	0.571584	0.713706
961	C	0.965434	0.553905	0.716457
962	C	0.975484	0.544291	0.009391
963	N	0.966796	0.553356	0.969466
964	C	0.949088	0.571087	0.966097
965	H	0.971162	0.547882	0.747585
966	N	0.942066	0.578394	0.924073
967	H	0.929497	0.590881	0.9196
968	H	0.949495	0.571139	0.897174
969	C	0.939042	0.863184	0.007024
970	N	0.94809	0.880939	0.713686
971	C	0.965779	0.916266	0.716444
972	C	0.975455	0.935938	0.009378
973	N	0.966422	0.918183	0.969453
974	C	0.948676	0.882741	0.966077
975	H	0.971776	0.928016	0.747572
976	N	0.941396	0.868413	0.924053
977	H	0.928892	0.843356	0.919576
978	H	0.948682	0.8831	0.897153
979	C	0.831122	0.584011	0.678645
980	N	0.81577	0.584321	0.972116
981	C	0.784387	0.582579	0.96911
982	C	0.767682	0.583556	0.676036
983	N	0.784185	0.585467	0.715757
984	C	0.814355	0.584595	0.719466
985	H	0.775918	0.585545	0.938036
986	N	0.828061	0.587576	0.761453
987	H	0.84951	0.587108	0.766116
988	H	0.815709	0.588506	0.788227
989	C	0.935746	0.751889	0.678553
990	N	0.935492	0.736142	0.972122
991	C	0.937283	0.70653	0.969229
992	C	0.936277	0.688861	0.676189
993	N	0.934358	0.703564	0.715805
994	C	0.935232	0.734608	0.719422
995	H	0.934348	0.695077	0.938172
996	N	0.932169	0.745316	0.761382
997	H	0.932783	0.767305	0.766018
998	H	0.931432	0.732147	0.788183
999	C	0.767888	0.688681	0.678804
1000	N	0.783735	0.703996	0.972323
1001	C	0.813303	0.735451	0.969331
1002	C	0.830833	0.752066	0.676396
1003	N	0.816144	0.735662	0.716101
1004	C	0.785068	0.705501	0.719674
1005	H	0.824974	0.74373	0.938348
1006	N	0.774226	0.691762	0.761616
1007	H	0.752364	0.670229	0.766177
1008	H	0.787461	0.704064	0.788444
