data_C504H648N144_2018-02-15_10:33:23
#******************************************
#
# CIF file created by Zeo++
# Zeo++ is an open source package to
# analyze microporous materials
#
#*******************************************

_cell_length_a		43.7716   
_cell_length_b		43.7716   
_cell_length_c		30.0404   
_cell_angle_alpha		90   
_cell_angle_beta		90   
_cell_angle_gamma		120   

_symmetry_space_group_name_H-M		'P1'
_symmetry_Int_Tables_number		1
_symmetry_cell_setting		Monoclinic

loop_
_symmetry_equiv_pos_as_xyz
'+x,+y,+z'

loop_
_atom_site_label
_atom_site_type_symbol
_atom_site_fract_x
_atom_site_fract_y
_atom_site_fract_z
1	C	0.181034	0.312106	0.033867
2	N	0.145349	0.297182	0.034052
3	C	0.129741	0.317295	0.033879
4	N	0.150503	0.352979	0.034041
5	C	0.186223	0.368588	0.033853
6	N	0.201145	0.347824	0.034026
7	N	0.092575	0.300992	0.033424
8	H	0.085265	0.319941	0.034965
9	N	0.207087	0.405752	0.033381
10	H	0.233347	0.413065	0.034887
11	N	0.197332	0.291239	0.03341
12	H	0.178387	0.264983	0.034962
13	C	0.317354	0.186909	0.967025
14	N	0.352996	0.201446	0.966845
15	C	0.368225	0.180989	0.967005
16	N	0.347121	0.145347	0.966812
17	C	0.311433	0.130117	0.966992
18	N	0.296896	0.151222	0.966835
19	N	0.405357	0.196896	0.967458
20	H	0.412373	0.177729	0.965957
21	N	0.290205	0.092984	0.967428
22	H	0.264023	0.085973	0.965977
23	N	0.301448	0.208135	0.967485
24	H	0.320615	0.234317	0.965997
25	C	0.237346	0.274577	0.32893
26	C	0.233457	0.251448	0.293053
27	C	0.24353	0.225308	0.298953
28	C	0.261728	0.225265	0.005139
29	C	0.26574	0.24849	0.040966
30	C	0.255595	0.274585	0.035087
31	C	0.232786	0.196889	0.264378
32	H	0.205655	0.187406	0.253714
33	H	0.2331	0.173493	0.275844
34	H	0.250268	0.207254	0.235603
35	C	0.220995	0.256493	0.248443
36	H	0.234226	0.284496	0.239986
37	H	0.192531	0.245955	0.249266
38	H	0.22669	0.244089	0.220768
39	C	0.278416	0.243595	0.085505
40	H	0.265012	0.215638	0.094237
41	H	0.273132	0.256309	0.11318
42	H	0.306831	0.253873	0.084361
43	C	0.266297	0.303018	0.069627
44	H	0.265716	0.326293	0.058234
45	H	0.293517	0.312704	0.080056
46	H	0.248971	0.292587	0.098534
47	C	0.278741	0.202598	0.007079
48	H	0.257765	0.175057	0.009419
49	H	0.295395	0.207492	0.03623
50	C	0.220052	0.296987	0.327095
51	H	0.203324	0.291943	0.297979
52	H	0.240855	0.324599	0.324753
53	C	0.223711	0.462422	0.328911
54	C	0.246767	0.481653	0.292971
55	C	0.272936	0.017862	0.29884
56	C	0.27306	0.036114	0.005056
57	C	0.24988	0.016916	0.040926
58	C	0.223766	0.48068	0.035082
59	C	0.3013	0.035511	0.264194
60	H	0.310735	0.017841	0.25346
61	H	0.324732	0.059205	0.275624
62	H	0.290904	0.042649	0.235472
63	C	0.241633	0.464142	0.24835
64	H	0.213611	0.449351	0.23999
65	H	0.252191	0.44623	0.249088
66	H	0.253966	0.482241	0.22066
67	C	0.25484	0.034499	0.085469
68	H	0.282808	0.04903	0.09415
69	H	0.242143	0.016516	0.113156
70	H	0.244592	0.052664	0.084356
71	C	0.195382	0.462958	0.069684
72	H	0.17209	0.439097	0.058331
73	H	0.185711	0.480492	0.080156
74	H	0.205855	0.45607	0.098555
75	C	0.295766	0.075791	0.00698
76	H	0.3233	0.082325	0.009247
77	H	0.290931	0.087565	0.036162
78	C	0.201297	0.422717	0.327092
79	H	0.206313	0.411031	0.297957
80	H	0.173683	0.415911	0.324805
81	C	0.035903	0.260978	0.328937
82	C	0.01667	0.264864	0.293049
83	C	0.480457	0.254799	0.298943
84	C	0.462208	0.236601	0.005126
85	C	0.481416	0.232587	0.04096
86	C	0.017656	0.242732	0.035092
87	C	0.462793	0.26555	0.264363
88	H	0.480444	0.292679	0.253705
89	H	0.439081	0.265239	0.275827
90	H	0.455675	0.24807	0.235589
91	C	0.034181	0.277329	0.248443
92	H	0.048958	0.264099	0.239992
93	H	0.052111	0.305796	0.249273
94	H	0.016092	0.271639	0.220768
95	C	0.463839	0.219913	0.085498
96	H	0.449283	0.233317	0.094219
97	H	0.481826	0.225192	0.113172
98	H	0.445695	0.191494	0.084348
99	C	0.035381	0.232031	0.069645
100	H	0.059244	0.232616	0.058262
101	H	0.01785	0.204813	0.080071
102	H	0.042269	0.249358	0.098549
103	C	0.422529	0.219594	0.007058
104	H	0.41597	0.240575	0.009402
105	H	0.410764	0.202936	0.036202
106	C	0.075607	0.278268	0.327111
107	H	0.087295	0.29499	0.297993
108	H	0.082414	0.257463	0.324781
109	C	0.181034	0.312106	0.367199
110	N	0.145349	0.297182	0.367386
111	C	0.129741	0.317295	0.367212
112	N	0.150503	0.352979	0.367372
113	C	0.186223	0.368588	0.367186
114	N	0.201145	0.347824	0.367359
115	N	0.092575	0.300992	0.366756
116	H	0.085265	0.319941	0.368298
117	N	0.207087	0.405752	0.366713
118	H	0.233347	0.413065	0.368221
119	N	0.197332	0.291239	0.366743
120	H	0.178387	0.264983	0.368294
121	C	0.317354	0.186909	0.300358
122	N	0.352996	0.201446	0.300178
123	C	0.368225	0.180989	0.300338
124	N	0.347121	0.145347	0.300147
125	C	0.311433	0.130117	0.300326
126	N	0.296896	0.151222	0.300169
127	N	0.405357	0.196896	0.30079
128	H	0.412373	0.177729	0.29929
129	N	0.290205	0.092984	0.300761
130	H	0.264023	0.085973	0.299311
131	N	0.301448	0.208135	0.300818
132	H	0.320615	0.234317	0.29933
133	C	0.237346	0.274577	0.662262
134	C	0.233457	0.251448	0.626387
135	C	0.24353	0.225308	0.632286
136	C	0.261728	0.225265	0.338471
137	C	0.26574	0.24849	0.3743
138	C	0.255595	0.274585	0.368421
139	C	0.232786	0.196889	0.597709
140	H	0.205655	0.187406	0.587047
141	H	0.2331	0.173493	0.609177
142	H	0.250268	0.207254	0.568934
143	C	0.220995	0.256493	0.581777
144	H	0.234226	0.284496	0.573318
145	H	0.192531	0.245955	0.582599
146	H	0.22669	0.244089	0.554101
147	C	0.278416	0.243595	0.41884
148	H	0.265012	0.215638	0.427568
149	H	0.273132	0.256309	0.446512
150	H	0.306831	0.253873	0.417695
151	C	0.266297	0.303018	0.402961
152	H	0.265716	0.326293	0.391566
153	H	0.293517	0.312704	0.41339
154	H	0.248971	0.292587	0.431865
155	C	0.278741	0.202598	0.340412
156	H	0.257765	0.175057	0.342752
157	H	0.295395	0.207492	0.369563
158	C	0.220052	0.296987	0.660428
159	H	0.203324	0.291943	0.631314
160	H	0.240855	0.324599	0.658088
161	C	0.223711	0.462422	0.662245
162	C	0.246767	0.481653	0.626304
163	C	0.272936	0.017862	0.632173
164	C	0.27306	0.036114	0.338388
165	C	0.24988	0.016916	0.37426
166	C	0.223766	0.48068	0.368414
167	C	0.3013	0.035511	0.597526
168	H	0.310735	0.017841	0.586794
169	H	0.324732	0.059205	0.608957
170	H	0.290904	0.042649	0.568805
171	C	0.241633	0.464142	0.581684
172	H	0.213611	0.449351	0.573322
173	H	0.252191	0.44623	0.582423
174	H	0.253966	0.482241	0.553994
175	C	0.25484	0.034499	0.418803
176	H	0.282808	0.04903	0.427481
177	H	0.242143	0.016516	0.446489
178	H	0.244592	0.052664	0.417691
179	C	0.195382	0.462958	0.403018
180	H	0.17209	0.439097	0.391663
181	H	0.185711	0.480492	0.41349
182	H	0.205855	0.45607	0.431889
183	C	0.295766	0.075791	0.340312
184	H	0.3233	0.082325	0.342579
185	H	0.290931	0.087565	0.369496
186	C	0.201297	0.422717	0.660425
187	H	0.206313	0.411031	0.63129
188	H	0.173683	0.415911	0.658138
189	C	0.035903	0.260978	0.662269
190	C	0.01667	0.264864	0.626384
191	C	0.480457	0.254799	0.632276
192	C	0.462208	0.236601	0.338458
193	C	0.481416	0.232587	0.374293
194	C	0.017656	0.242732	0.368424
195	C	0.462793	0.26555	0.597696
196	H	0.480444	0.292679	0.587037
197	H	0.439081	0.265239	0.60916
198	H	0.455675	0.24807	0.568921
199	C	0.034181	0.277329	0.581777
200	H	0.048958	0.264099	0.573325
201	H	0.052111	0.305796	0.582606
202	H	0.016092	0.271639	0.554101
203	C	0.463839	0.219913	0.41883
204	H	0.449283	0.233317	0.427551
205	H	0.481826	0.225192	0.446506
206	H	0.445695	0.191494	0.417681
207	C	0.035381	0.232031	0.402978
208	H	0.059244	0.232616	0.391596
209	H	0.01785	0.204813	0.413404
210	H	0.042269	0.249358	0.431882
211	C	0.422529	0.219594	0.340392
212	H	0.41597	0.240575	0.342735
213	H	0.410764	0.202936	0.369536
214	C	0.075607	0.278268	0.660445
215	H	0.087295	0.29499	0.631327
216	H	0.082414	0.257463	0.658114
217	C	0.181034	0.312106	0.700534
218	N	0.145349	0.297182	0.700717
219	C	0.129741	0.317295	0.700544
220	N	0.150503	0.352979	0.700707
221	C	0.186223	0.368588	0.700521
222	N	0.201145	0.347824	0.700694
223	N	0.092575	0.300992	0.700091
224	H	0.085265	0.319941	0.701632
225	N	0.207087	0.405752	0.700048
226	H	0.233347	0.413065	0.701553
227	N	0.197332	0.291239	0.700078
228	H	0.178387	0.264983	0.701629
229	C	0.317354	0.186909	0.633691
230	N	0.352996	0.201446	0.633511
231	C	0.368225	0.180989	0.633671
232	N	0.347121	0.145347	0.633481
233	C	0.311433	0.130117	0.633661
234	N	0.296896	0.151222	0.633501
235	N	0.405357	0.196896	0.634123
236	H	0.412373	0.177729	0.632622
237	N	0.290205	0.092984	0.634093
238	H	0.264023	0.085973	0.632642
239	N	0.301448	0.208135	0.63415
240	H	0.320615	0.234317	0.632662
241	C	0.237346	0.274577	0.995597
242	C	0.233457	0.251448	0.959718
243	C	0.24353	0.225308	0.96562
244	C	0.261728	0.225265	0.671806
245	C	0.26574	0.24849	0.707631
246	C	0.255595	0.274585	0.701752
247	C	0.232786	0.196889	0.931044
248	H	0.205655	0.187406	0.920381
249	H	0.2331	0.173493	0.942512
250	H	0.250268	0.207254	0.902269
251	C	0.220995	0.256493	0.915108
252	H	0.234226	0.284496	0.906653
253	H	0.192531	0.245955	0.915931
254	H	0.22669	0.244089	0.887432
255	C	0.278416	0.243595	0.752171
256	H	0.265012	0.215638	0.760903
257	H	0.273132	0.256309	0.779847
258	H	0.306831	0.253873	0.751026
259	C	0.266297	0.303018	0.736292
260	H	0.265716	0.326293	0.724901
261	H	0.293517	0.312704	0.746722
262	H	0.248971	0.292587	0.7652
263	C	0.278741	0.202598	0.673747
264	H	0.257765	0.175057	0.676083
265	H	0.295395	0.207492	0.702894
266	C	0.220052	0.296987	0.993763
267	H	0.203324	0.291943	0.964645
268	H	0.240855	0.324599	0.991419
269	C	0.223711	0.462422	0.995577
270	C	0.246767	0.481653	0.959639
271	C	0.272936	0.017862	0.965507
272	C	0.27306	0.036114	0.671723
273	C	0.24988	0.016916	0.707591
274	C	0.223766	0.48068	0.701749
275	C	0.3013	0.035511	0.930861
276	H	0.310735	0.017841	0.920125
277	H	0.324732	0.059205	0.942289
278	H	0.290904	0.042649	0.902139
279	C	0.241633	0.464142	0.915015
280	H	0.213611	0.449351	0.906656
281	H	0.252191	0.44623	0.915754
282	H	0.253966	0.482241	0.887326
283	C	0.25484	0.034499	0.752134
284	H	0.282808	0.04903	0.760816
285	H	0.242143	0.016516	0.779821
286	H	0.244592	0.052664	0.751023
287	C	0.195382	0.462958	0.736349
288	H	0.17209	0.439097	0.724998
289	H	0.185711	0.480492	0.746822
290	H	0.205855	0.45607	0.76522
291	C	0.295766	0.075791	0.673647
292	H	0.3233	0.082325	0.675914
293	H	0.290931	0.087565	0.702827
294	C	0.201297	0.422717	0.993759
295	H	0.206313	0.411031	0.964622
296	H	0.173683	0.415911	0.991472
297	C	0.035903	0.260978	0.995603
298	C	0.01667	0.264864	0.959715
299	C	0.480457	0.254799	0.96561
300	C	0.462208	0.236601	0.671793
301	C	0.481416	0.232587	0.707628
302	C	0.017656	0.242732	0.701759
303	C	0.462793	0.26555	0.93103
304	H	0.480444	0.292679	0.920371
305	H	0.439081	0.265239	0.942492
306	H	0.455675	0.24807	0.902256
307	C	0.034181	0.277329	0.915108
308	H	0.048958	0.264099	0.90666
309	H	0.052111	0.305796	0.915941
310	H	0.016092	0.271639	0.887432
311	C	0.463839	0.219913	0.752164
312	H	0.449283	0.233317	0.760886
313	H	0.481826	0.225192	0.779837
314	H	0.445695	0.191494	0.751013
315	C	0.035381	0.232031	0.736309
316	H	0.059244	0.232616	0.724928
317	H	0.01785	0.204813	0.746735
318	H	0.042269	0.249358	0.765214
319	C	0.422529	0.219594	0.673723
320	H	0.41597	0.240575	0.676067
321	H	0.410764	0.202936	0.702867
322	C	0.075607	0.278268	0.993776
323	H	0.087295	0.29499	0.964658
324	H	0.082414	0.257463	0.991446
325	C	0.181033	0.812104	0.033867
326	N	0.14535	0.797183	0.034052
327	C	0.129739	0.817293	0.033879
328	N	0.150501	0.852977	0.034041
329	C	0.186221	0.868586	0.033853
330	N	0.201145	0.847825	0.034026
331	N	0.092575	0.800992	0.033424
332	H	0.085263	0.819938	0.034965
333	N	0.207086	0.90575	0.033381
334	H	0.233346	0.913063	0.034887
335	N	0.197333	0.79124	0.03341
336	H	0.178386	0.764981	0.034962
337	C	0.317354	0.686909	0.967025
338	N	0.352996	0.701447	0.966845
339	C	0.368226	0.680989	0.967005
340	N	0.347121	0.645347	0.966812
341	C	0.311432	0.630115	0.966992
342	N	0.296896	0.651222	0.966835
343	N	0.405357	0.696894	0.967458
344	H	0.412373	0.677729	0.965957
345	N	0.290204	0.592983	0.967428
346	H	0.264023	0.585973	0.965977
347	N	0.301448	0.708134	0.967485
348	H	0.320614	0.734317	0.965997
349	C	0.237345	0.774575	0.32893
350	C	0.233457	0.751448	0.293053
351	C	0.24353	0.725308	0.298953
352	C	0.261728	0.725266	0.005139
353	C	0.26574	0.748491	0.040966
354	C	0.255594	0.774583	0.035087
355	C	0.232785	0.696888	0.264378
356	H	0.205655	0.687405	0.253714
357	H	0.233099	0.673492	0.275844
358	H	0.250267	0.707253	0.235603
359	C	0.220995	0.756492	0.248443
360	H	0.234225	0.784494	0.239986
361	H	0.192531	0.745955	0.249266
362	H	0.22669	0.744088	0.220768
363	C	0.278415	0.743594	0.085505
364	H	0.265012	0.715637	0.094237
365	H	0.273132	0.75631	0.11318
366	H	0.306831	0.753872	0.084361
367	C	0.266298	0.803018	0.069627
368	H	0.265716	0.826293	0.058234
369	H	0.293517	0.812705	0.080056
370	H	0.248972	0.792588	0.098534
371	C	0.278741	0.702597	0.007079
372	H	0.257765	0.675056	0.009419
373	H	0.295395	0.707491	0.03623
374	C	0.220052	0.796988	0.327095
375	H	0.203324	0.791944	0.297979
376	H	0.240856	0.8246	0.324753
377	C	0.223711	0.962423	0.328911
378	C	0.246767	0.981654	0.292971
379	C	0.272935	0.517863	0.29884
380	C	0.27306	0.536115	0.005056
381	C	0.249878	0.516915	0.040926
382	C	0.223766	0.980678	0.035082
383	C	0.301299	0.535511	0.264194
384	H	0.310735	0.517841	0.25346
385	H	0.324732	0.559205	0.275623
386	H	0.290903	0.542649	0.235472
387	C	0.241635	0.964143	0.24835
388	H	0.213611	0.949351	0.23999
389	H	0.25219	0.946228	0.249088
390	H	0.253964	0.982239	0.22066
391	C	0.25484	0.534498	0.085469
392	H	0.282808	0.549028	0.09415
393	H	0.242141	0.516515	0.113156
394	H	0.244591	0.552663	0.084356
395	C	0.195381	0.962956	0.069684
396	H	0.172091	0.939097	0.058331
397	H	0.18571	0.98049	0.080156
398	H	0.205853	0.956068	0.098555
399	C	0.295765	0.575791	0.00698
400	H	0.3233	0.582325	0.009247
401	H	0.290931	0.587564	0.036162
402	C	0.201298	0.922718	0.327092
403	H	0.206312	0.911029	0.297957
404	H	0.173685	0.915912	0.324805
405	C	0.035902	0.760976	0.328937
406	C	0.016669	0.764862	0.293049
407	C	0.480457	0.754798	0.298943
408	C	0.46221	0.736601	0.005126
409	C	0.481415	0.732586	0.04096
410	C	0.017657	0.742732	0.035092
411	C	0.462793	0.765551	0.264363
412	H	0.480444	0.79268	0.253705
413	H	0.439081	0.765239	0.275827
414	H	0.455675	0.748069	0.235589
415	C	0.03418	0.777327	0.248443
416	H	0.048959	0.7641	0.239992
417	H	0.052111	0.805796	0.249273
418	H	0.016092	0.771636	0.220768
419	C	0.463839	0.719913	0.085498
420	H	0.449282	0.733317	0.094219
421	H	0.481826	0.725192	0.113172
422	H	0.445695	0.691494	0.084348
423	C	0.035382	0.732032	0.069645
424	H	0.059243	0.732615	0.058262
425	H	0.017849	0.704813	0.080071
426	H	0.04227	0.749358	0.098549
427	C	0.42253	0.719594	0.007058
428	H	0.41597	0.740574	0.009402
429	H	0.410764	0.702935	0.036202
430	C	0.075607	0.778268	0.327111
431	H	0.087297	0.794991	0.297993
432	H	0.082414	0.757462	0.324781
433	C	0.181033	0.812104	0.367199
434	N	0.14535	0.797183	0.367386
435	C	0.129739	0.817293	0.367212
436	N	0.150501	0.852977	0.367372
437	C	0.186221	0.868586	0.367186
438	N	0.201145	0.847825	0.367359
439	N	0.092575	0.800992	0.366756
440	H	0.085263	0.819938	0.368298
441	N	0.207086	0.90575	0.366713
442	H	0.233346	0.913063	0.368221
443	N	0.197333	0.79124	0.366743
444	H	0.178386	0.764981	0.368294
445	C	0.317354	0.686909	0.300358
446	N	0.352996	0.701447	0.300178
447	C	0.368226	0.680989	0.300338
448	N	0.347121	0.645347	0.300147
449	C	0.311432	0.630115	0.300326
450	N	0.296896	0.651222	0.300169
451	N	0.405357	0.696894	0.30079
452	H	0.412373	0.677729	0.29929
453	N	0.290204	0.592983	0.300761
454	H	0.264023	0.585973	0.29931
455	N	0.301448	0.708134	0.300818
456	H	0.320614	0.734317	0.29933
457	C	0.237345	0.774575	0.662262
458	C	0.233457	0.751448	0.626387
459	C	0.24353	0.725308	0.632286
460	C	0.261728	0.725266	0.338471
461	C	0.26574	0.748491	0.3743
462	C	0.255594	0.774583	0.368421
463	C	0.232785	0.696888	0.597712
464	H	0.205655	0.687405	0.587047
465	H	0.233099	0.673492	0.609177
466	H	0.250267	0.707253	0.568934
467	C	0.220995	0.756492	0.581777
468	H	0.234225	0.784494	0.573318
469	H	0.192531	0.745955	0.582599
470	H	0.22669	0.744088	0.554101
471	C	0.278415	0.743594	0.41884
472	H	0.265012	0.715637	0.427568
473	H	0.273132	0.75631	0.446512
474	H	0.306831	0.753872	0.417695
475	C	0.266298	0.803018	0.402961
476	H	0.265716	0.826293	0.391566
477	H	0.293517	0.812705	0.41339
478	H	0.248972	0.792588	0.431865
479	C	0.278741	0.702597	0.340412
480	H	0.257765	0.675056	0.342752
481	H	0.295395	0.707491	0.369563
482	C	0.220052	0.796988	0.660428
483	H	0.203324	0.791944	0.631314
484	H	0.240856	0.8246	0.658088
485	C	0.223711	0.962423	0.662245
486	C	0.246767	0.981654	0.626304
487	C	0.272935	0.517863	0.632173
488	C	0.27306	0.536115	0.338388
489	C	0.249878	0.516915	0.37426
490	C	0.223766	0.980678	0.368414
491	C	0.301299	0.535511	0.597526
492	H	0.310735	0.517841	0.586794
493	H	0.324732	0.559205	0.608957
494	H	0.290903	0.542649	0.568805
495	C	0.241635	0.964143	0.581684
496	H	0.213611	0.949351	0.573322
497	H	0.25219	0.946228	0.582423
498	H	0.253964	0.982239	0.553994
499	C	0.25484	0.534498	0.418803
500	H	0.282808	0.549028	0.427481
501	H	0.242141	0.516515	0.446489
502	H	0.244591	0.552663	0.417691
503	C	0.195381	0.962956	0.403018
504	H	0.172091	0.939097	0.391663
505	H	0.18571	0.98049	0.41349
506	H	0.205853	0.956068	0.431889
507	C	0.295765	0.575791	0.340312
508	H	0.3233	0.582325	0.342579
509	H	0.290931	0.587564	0.369496
510	C	0.201298	0.922718	0.660425
511	H	0.206312	0.911029	0.63129
512	H	0.173685	0.915912	0.658138
513	C	0.035902	0.760976	0.662269
514	C	0.016669	0.764862	0.626384
515	C	0.480457	0.754798	0.632276
516	C	0.46221	0.736601	0.338458
517	C	0.481415	0.732586	0.374293
518	C	0.017657	0.742732	0.368424
519	C	0.462793	0.765551	0.597696
520	H	0.480444	0.79268	0.587037
521	H	0.439081	0.765239	0.60916
522	H	0.455675	0.748069	0.568921
523	C	0.03418	0.777327	0.581777
524	H	0.048959	0.7641	0.573325
525	H	0.052111	0.805796	0.582606
526	H	0.016092	0.771636	0.554101
527	C	0.463839	0.719913	0.41883
528	H	0.449282	0.733317	0.427551
529	H	0.481826	0.725192	0.446506
530	H	0.445695	0.691494	0.417681
531	C	0.035382	0.732032	0.402978
532	H	0.059243	0.732615	0.391596
533	H	0.017849	0.704813	0.413404
534	H	0.04227	0.749358	0.431882
535	C	0.42253	0.719594	0.340392
536	H	0.41597	0.740574	0.342735
537	H	0.410764	0.702935	0.369536
538	C	0.075607	0.778268	0.660445
539	H	0.087297	0.794991	0.631327
540	H	0.082414	0.757462	0.658114
541	C	0.181033	0.812104	0.700534
542	N	0.14535	0.797183	0.700717
543	C	0.129739	0.817293	0.700544
544	N	0.150501	0.852977	0.700707
545	C	0.186221	0.868586	0.700521
546	N	0.201145	0.847825	0.700694
547	N	0.092575	0.800992	0.700091
548	H	0.085263	0.819938	0.701632
549	N	0.207086	0.90575	0.700048
550	H	0.233346	0.913063	0.701553
551	N	0.197333	0.79124	0.700078
552	H	0.178386	0.764981	0.701629
553	C	0.317354	0.686909	0.633691
554	N	0.352996	0.701447	0.633511
555	C	0.368226	0.680989	0.633671
556	N	0.347121	0.645347	0.633481
557	C	0.311432	0.630115	0.633661
558	N	0.296896	0.651222	0.633501
559	N	0.405357	0.696894	0.634123
560	H	0.412373	0.677729	0.632622
561	N	0.290204	0.592983	0.634093
562	H	0.264023	0.585973	0.632642
563	N	0.301448	0.708134	0.63415
564	H	0.320614	0.734317	0.632662
565	C	0.237345	0.774575	0.995597
566	C	0.233457	0.751448	0.959718
567	C	0.24353	0.725308	0.96562
568	C	0.261728	0.725266	0.671806
569	C	0.26574	0.748491	0.707631
570	C	0.255594	0.774583	0.701752
571	C	0.232785	0.696888	0.931044
572	H	0.205655	0.687405	0.920381
573	H	0.233099	0.673492	0.942512
574	H	0.250267	0.707253	0.902269
575	C	0.220995	0.756492	0.915108
576	H	0.234225	0.784494	0.906653
577	H	0.192531	0.745955	0.915931
578	H	0.22669	0.744088	0.887432
579	C	0.278415	0.743594	0.752171
580	H	0.265012	0.715637	0.760903
581	H	0.273132	0.75631	0.779847
582	H	0.306831	0.753872	0.751026
583	C	0.266298	0.803018	0.736292
584	H	0.265716	0.826293	0.724901
585	H	0.293517	0.812705	0.746722
586	H	0.248972	0.792588	0.7652
587	C	0.278741	0.702597	0.673747
588	H	0.257765	0.675056	0.676083
589	H	0.295395	0.707491	0.702894
590	C	0.220052	0.796988	0.993763
591	H	0.203324	0.791944	0.964645
592	H	0.240856	0.8246	0.991419
593	C	0.223711	0.962423	0.995577
594	C	0.246767	0.981654	0.959639
595	C	0.272935	0.517863	0.965507
596	C	0.27306	0.536115	0.671723
597	C	0.249878	0.516915	0.707591
598	C	0.223766	0.980678	0.701749
599	C	0.301299	0.535511	0.930861
600	H	0.310735	0.517841	0.920125
601	H	0.324732	0.559205	0.942289
602	H	0.290903	0.542649	0.902139
603	C	0.241635	0.964143	0.915015
604	H	0.213611	0.949351	0.906656
605	H	0.25219	0.946228	0.915754
606	H	0.253964	0.982239	0.887326
607	C	0.25484	0.534498	0.752134
608	H	0.282808	0.549028	0.760816
609	H	0.242141	0.516515	0.779821
610	H	0.244591	0.552663	0.751023
611	C	0.195381	0.962956	0.736349
612	H	0.172091	0.939097	0.724998
613	H	0.18571	0.98049	0.746822
614	H	0.205853	0.956068	0.76522
615	C	0.295765	0.575791	0.673647
616	H	0.3233	0.582325	0.675914
617	H	0.290931	0.587564	0.702827
618	C	0.201298	0.922718	0.993759
619	H	0.206312	0.911029	0.964622
620	H	0.173685	0.915912	0.991472
621	C	0.035902	0.760976	0.995603
622	C	0.016669	0.764862	0.959715
623	C	0.480457	0.754798	0.96561
624	C	0.46221	0.736601	0.671793
625	C	0.481415	0.732586	0.707628
626	C	0.017657	0.742732	0.701759
627	C	0.462793	0.765551	0.93103
628	H	0.480444	0.79268	0.920371
629	H	0.439081	0.765239	0.942492
630	H	0.455675	0.748069	0.902256
631	C	0.03418	0.777327	0.915108
632	H	0.048959	0.7641	0.90666
633	H	0.052111	0.805796	0.915941
634	H	0.016092	0.771636	0.887432
635	C	0.463839	0.719913	0.752164
636	H	0.449282	0.733317	0.760886
637	H	0.481826	0.725192	0.779837
638	H	0.445695	0.691494	0.751013
639	C	0.035382	0.732032	0.736309
640	H	0.059243	0.732615	0.724928
641	H	0.017849	0.704813	0.746735
642	H	0.04227	0.749358	0.765214
643	C	0.42253	0.719594	0.673723
644	H	0.41597	0.740574	0.676067
645	H	0.410764	0.702935	0.702867
646	C	0.075607	0.778268	0.993776
647	H	0.087297	0.794991	0.964658
648	H	0.082414	0.757462	0.991446
649	C	0.681035	0.312106	0.033867
650	N	0.645349	0.297182	0.034052
651	C	0.62974	0.317295	0.033879
652	N	0.650502	0.352979	0.034041
653	C	0.686222	0.368588	0.033853
654	N	0.701144	0.347824	0.034026
655	N	0.592575	0.300992	0.033424
656	H	0.585264	0.319941	0.034965
657	N	0.707087	0.405752	0.033381
658	H	0.733347	0.413065	0.034887
659	N	0.697333	0.291239	0.03341
660	H	0.678386	0.264983	0.034962
661	C	0.817353	0.186909	0.967025
662	N	0.852996	0.201446	0.966845
663	C	0.868225	0.180989	0.967005
664	N	0.847121	0.145347	0.966812
665	C	0.811433	0.130117	0.966992
666	N	0.796896	0.151222	0.966835
667	N	0.905357	0.196896	0.967458
668	H	0.912373	0.177729	0.965957
669	N	0.790205	0.092984	0.967428
670	H	0.764023	0.085973	0.965977
671	N	0.801449	0.208135	0.967485
672	H	0.820615	0.234317	0.965997
673	C	0.737347	0.274577	0.32893
674	C	0.733456	0.251448	0.293053
675	C	0.743529	0.225308	0.298953
676	C	0.761727	0.225265	0.005139
677	C	0.765741	0.24849	0.040966
678	C	0.755595	0.274585	0.035087
679	C	0.732785	0.196889	0.264378
680	H	0.705655	0.187406	0.253714
681	H	0.733099	0.173493	0.275844
682	H	0.750268	0.207254	0.235603
683	C	0.720996	0.256493	0.248443
684	H	0.734226	0.284496	0.239986
685	H	0.692532	0.245955	0.249266
686	H	0.72669	0.244089	0.220768
687	C	0.778415	0.243595	0.085505
688	H	0.765012	0.215638	0.094237
689	H	0.773132	0.256309	0.11318
690	H	0.806832	0.253873	0.084361
691	C	0.766298	0.303018	0.069627
692	H	0.765715	0.326293	0.058234
693	H	0.793517	0.312704	0.080056
694	H	0.748972	0.292587	0.098534
695	C	0.778741	0.202598	0.007079
696	H	0.757764	0.175057	0.009419
697	H	0.795395	0.207492	0.03623
698	C	0.720051	0.296987	0.327095
699	H	0.703324	0.291943	0.297979
700	H	0.740855	0.324599	0.324753
701	C	0.723711	0.462422	0.328911
702	C	0.746767	0.481653	0.292971
703	C	0.772936	0.017862	0.29884
704	C	0.77306	0.036114	0.005056
705	C	0.74988	0.016916	0.040926
706	C	0.723768	0.48068	0.035082
707	C	0.8013	0.035511	0.264194
708	H	0.810735	0.017841	0.25346
709	H	0.824732	0.059205	0.275624
710	H	0.790904	0.042649	0.235472
711	C	0.741632	0.464142	0.24835
712	H	0.713611	0.449351	0.23999
713	H	0.752191	0.44623	0.249088
714	H	0.753965	0.482241	0.22066
715	C	0.75484	0.034499	0.085469
716	H	0.782808	0.04903	0.09415
717	H	0.742143	0.016516	0.113156
718	H	0.744592	0.052664	0.084356
719	C	0.695382	0.462958	0.069684
720	H	0.672091	0.439097	0.058331
721	H	0.685711	0.480492	0.080156
722	H	0.705854	0.45607	0.098555
723	C	0.795764	0.075791	0.00698
724	H	0.8233	0.082325	0.009247
725	H	0.790931	0.087565	0.036162
726	C	0.701297	0.422717	0.327092
727	H	0.706313	0.411031	0.297957
728	H	0.673685	0.415911	0.324805
729	C	0.535902	0.260978	0.328937
730	C	0.51667	0.264864	0.293049
731	C	0.980457	0.254799	0.298943
732	C	0.962208	0.236601	0.005126
733	C	0.981416	0.232587	0.04096
734	C	0.517657	0.242732	0.035092
735	C	0.962793	0.26555	0.264363
736	H	0.980444	0.292679	0.253705
737	H	0.939081	0.265239	0.275827
738	H	0.955675	0.24807	0.235589
739	C	0.534181	0.277329	0.248443
740	H	0.548959	0.264099	0.239992
741	H	0.552111	0.305796	0.249273
742	H	0.516093	0.271639	0.220768
743	C	0.963839	0.219913	0.085498
744	H	0.949283	0.233317	0.094219
745	H	0.981826	0.225192	0.113172
746	H	0.945695	0.191494	0.084348
747	C	0.535381	0.232031	0.069645
748	H	0.559244	0.232616	0.058262
749	H	0.517849	0.204813	0.080071
750	H	0.542269	0.249358	0.098549
751	C	0.922529	0.219594	0.007058
752	H	0.91597	0.240575	0.009402
753	H	0.910764	0.202936	0.036202
754	C	0.575606	0.278268	0.327111
755	H	0.587296	0.29499	0.297993
756	H	0.582414	0.257463	0.324781
757	C	0.681035	0.312106	0.367199
758	N	0.645349	0.297182	0.367386
759	C	0.62974	0.317295	0.367212
760	N	0.650502	0.352979	0.367372
761	C	0.686222	0.368588	0.367186
762	N	0.701144	0.347824	0.367359
763	N	0.592575	0.300992	0.366756
764	H	0.585264	0.319941	0.368298
765	N	0.707087	0.405752	0.366713
766	H	0.733347	0.413065	0.368221
767	N	0.697333	0.291239	0.366743
768	H	0.678386	0.264983	0.368294
769	C	0.817353	0.186909	0.300358
770	N	0.852996	0.201446	0.300178
771	C	0.868225	0.180989	0.300338
772	N	0.847121	0.145347	0.300147
773	C	0.811433	0.130117	0.300326
774	N	0.796896	0.151222	0.300169
775	N	0.905357	0.196896	0.30079
776	H	0.912373	0.177729	0.29929
777	N	0.790205	0.092984	0.300761
778	H	0.764023	0.085973	0.299311
779	N	0.801449	0.208135	0.300818
780	H	0.820615	0.234317	0.29933
781	C	0.737347	0.274577	0.662262
782	C	0.733456	0.251448	0.626387
783	C	0.743529	0.225308	0.632286
784	C	0.761727	0.225265	0.338471
785	C	0.765741	0.24849	0.3743
786	C	0.755595	0.274585	0.368421
787	C	0.732785	0.196889	0.597709
788	H	0.705655	0.187406	0.587047
789	H	0.733099	0.173493	0.609177
790	H	0.750268	0.207254	0.568934
791	C	0.720996	0.256493	0.581777
792	H	0.734226	0.284496	0.573318
793	H	0.692532	0.245955	0.582599
794	H	0.72669	0.244089	0.554101
795	C	0.778415	0.243595	0.41884
796	H	0.765012	0.215638	0.427568
797	H	0.773132	0.256309	0.446512
798	H	0.806832	0.253873	0.417695
799	C	0.766298	0.303018	0.402961
800	H	0.765715	0.326293	0.391566
801	H	0.793517	0.312704	0.41339
802	H	0.748972	0.292587	0.431865
803	C	0.778741	0.202598	0.340412
804	H	0.757764	0.175057	0.342752
805	H	0.795395	0.207492	0.369563
806	C	0.720051	0.296987	0.660428
807	H	0.703324	0.291943	0.631314
808	H	0.740855	0.324599	0.658088
809	C	0.723711	0.462422	0.662245
810	C	0.746767	0.481653	0.626304
811	C	0.772936	0.017862	0.632173
812	C	0.77306	0.036114	0.338388
813	C	0.74988	0.016916	0.37426
814	C	0.723768	0.48068	0.368414
815	C	0.8013	0.035511	0.597526
816	H	0.810735	0.017841	0.586794
817	H	0.824732	0.059205	0.608957
818	H	0.790904	0.042649	0.568805
819	C	0.741632	0.464142	0.581684
820	H	0.713611	0.449351	0.573322
821	H	0.752191	0.44623	0.582423
822	H	0.753965	0.482241	0.553994
823	C	0.75484	0.034499	0.418803
824	H	0.782808	0.04903	0.427481
825	H	0.742143	0.016516	0.446489
826	H	0.744592	0.052664	0.417691
827	C	0.695382	0.462958	0.403018
828	H	0.672091	0.439097	0.391663
829	H	0.685711	0.480492	0.41349
830	H	0.705854	0.45607	0.431889
831	C	0.795764	0.075791	0.340312
832	H	0.8233	0.082325	0.342579
833	H	0.790931	0.087565	0.369496
834	C	0.701297	0.422717	0.660425
835	H	0.706313	0.411031	0.63129
836	H	0.673685	0.415911	0.658138
837	C	0.535902	0.260978	0.662269
838	C	0.51667	0.264864	0.626384
839	C	0.980457	0.254799	0.632276
840	C	0.962208	0.236601	0.338458
841	C	0.981416	0.232587	0.374293
842	C	0.517657	0.242732	0.368424
843	C	0.962793	0.26555	0.597696
844	H	0.980444	0.292679	0.587037
845	H	0.939081	0.265239	0.60916
846	H	0.955675	0.24807	0.568921
847	C	0.534181	0.277329	0.581777
848	H	0.548959	0.264099	0.573325
849	H	0.552111	0.305796	0.582606
850	H	0.516093	0.271639	0.554101
851	C	0.963839	0.219913	0.41883
852	H	0.949283	0.233317	0.427551
853	H	0.981826	0.225192	0.446506
854	H	0.945695	0.191494	0.417681
855	C	0.535381	0.232031	0.402978
856	H	0.559244	0.232616	0.391596
857	H	0.517849	0.204813	0.413404
858	H	0.542269	0.249358	0.431882
859	C	0.922529	0.219594	0.340392
860	H	0.91597	0.240575	0.342735
861	H	0.910764	0.202936	0.369536
862	C	0.575606	0.278268	0.660445
863	H	0.587296	0.29499	0.631327
864	H	0.582414	0.257463	0.658114
865	C	0.681035	0.312106	0.700534
866	N	0.645349	0.297182	0.700717
867	C	0.62974	0.317295	0.700544
868	N	0.650502	0.352979	0.700707
869	C	0.686222	0.368588	0.700521
870	N	0.701144	0.347824	0.700694
871	N	0.592575	0.300992	0.700091
872	H	0.585264	0.319941	0.701632
873	N	0.707087	0.405752	0.700048
874	H	0.733347	0.413065	0.701553
875	N	0.697333	0.291239	0.700078
876	H	0.678386	0.264983	0.701629
877	C	0.817353	0.186909	0.633691
878	N	0.852996	0.201446	0.633511
879	C	0.868225	0.180989	0.633671
880	N	0.847121	0.145347	0.633481
881	C	0.811433	0.130117	0.633661
882	N	0.796896	0.151222	0.633501
883	N	0.905357	0.196896	0.634123
884	H	0.912373	0.177729	0.632622
885	N	0.790205	0.092984	0.634093
886	H	0.764023	0.085973	0.632642
887	N	0.801449	0.208135	0.63415
888	H	0.820615	0.234317	0.632662
889	C	0.737347	0.274577	0.995597
890	C	0.733456	0.251448	0.959718
891	C	0.743529	0.225308	0.96562
892	C	0.761727	0.225265	0.671806
893	C	0.765741	0.24849	0.707631
894	C	0.755595	0.274585	0.701752
895	C	0.732785	0.196889	0.931044
896	H	0.705655	0.187406	0.920381
897	H	0.733099	0.173493	0.942512
898	H	0.750268	0.207254	0.902269
899	C	0.720996	0.256493	0.915108
900	H	0.734226	0.284496	0.906653
901	H	0.692532	0.245955	0.915931
902	H	0.72669	0.244089	0.887432
903	C	0.778415	0.243595	0.752171
904	H	0.765012	0.215638	0.760903
905	H	0.773132	0.256309	0.779847
906	H	0.806832	0.253873	0.751026
907	C	0.766298	0.303018	0.736292
908	H	0.765715	0.326293	0.724901
909	H	0.793517	0.312704	0.746722
910	H	0.748972	0.292587	0.7652
911	C	0.778741	0.202598	0.673747
912	H	0.757764	0.175057	0.676083
913	H	0.795395	0.207492	0.702894
914	C	0.720051	0.296987	0.993763
915	H	0.703324	0.291943	0.964645
916	H	0.740855	0.324599	0.991419
917	C	0.723711	0.462422	0.995577
918	C	0.746767	0.481653	0.959639
919	C	0.772936	0.017862	0.965507
920	C	0.77306	0.036114	0.671723
921	C	0.74988	0.016916	0.707591
922	C	0.723768	0.48068	0.701749
923	C	0.8013	0.035511	0.930861
924	H	0.810735	0.017841	0.920125
925	H	0.824732	0.059205	0.942289
926	H	0.790904	0.042649	0.902139
927	C	0.741632	0.464142	0.915015
928	H	0.713611	0.449351	0.906656
929	H	0.752191	0.44623	0.915754
930	H	0.753965	0.482241	0.887326
931	C	0.75484	0.034499	0.752134
932	H	0.782808	0.04903	0.760816
933	H	0.742143	0.016516	0.779821
934	H	0.744592	0.052664	0.751023
935	C	0.695382	0.462958	0.736349
936	H	0.672091	0.439097	0.724998
937	H	0.685711	0.480492	0.746822
938	H	0.705854	0.45607	0.76522
939	C	0.795764	0.075791	0.673647
940	H	0.8233	0.082325	0.675914
941	H	0.790931	0.087565	0.702827
942	C	0.701297	0.422717	0.993759
943	H	0.706313	0.411031	0.964622
944	H	0.673685	0.415911	0.991472
945	C	0.535902	0.260978	0.995603
946	C	0.51667	0.264864	0.959715
947	C	0.980457	0.254799	0.96561
948	C	0.962208	0.236601	0.671793
949	C	0.981416	0.232587	0.707628
950	C	0.517657	0.242732	0.701759
951	C	0.962793	0.26555	0.93103
952	H	0.980444	0.292679	0.920371
953	H	0.939081	0.265239	0.942492
954	H	0.955675	0.24807	0.902256
955	C	0.534181	0.277329	0.915108
956	H	0.548959	0.264099	0.90666
957	H	0.552111	0.305796	0.915941
958	H	0.516093	0.271639	0.887432
959	C	0.963839	0.219913	0.752164
960	H	0.949283	0.233317	0.760886
961	H	0.981826	0.225192	0.779837
962	H	0.945695	0.191494	0.751013
963	C	0.535381	0.232031	0.736309
964	H	0.559244	0.232616	0.724928
965	H	0.517849	0.204813	0.746735
966	H	0.542269	0.249358	0.765214
967	C	0.922529	0.219594	0.673723
968	H	0.91597	0.240575	0.676067
969	H	0.910764	0.202936	0.702867
970	C	0.575606	0.278268	0.993776
971	H	0.587296	0.29499	0.964658
972	H	0.582414	0.257463	0.991446
973	C	0.681034	0.812104	0.033867
974	N	0.64535	0.797183	0.034052
975	C	0.62974	0.817293	0.033879
976	N	0.650502	0.852977	0.034041
977	C	0.686221	0.868586	0.033853
978	N	0.701145	0.847825	0.034026
979	N	0.592575	0.800992	0.033424
980	H	0.585263	0.819938	0.034965
981	N	0.707086	0.90575	0.033381
982	H	0.733346	0.913063	0.034887
983	N	0.697334	0.79124	0.03341
984	H	0.678385	0.764981	0.034962
985	C	0.817353	0.686909	0.967025
986	N	0.852997	0.701447	0.966845
987	C	0.868225	0.680989	0.967005
988	N	0.847121	0.645347	0.966812
989	C	0.811432	0.630115	0.966992
990	N	0.796896	0.651222	0.966835
991	N	0.905356	0.696894	0.967458
992	H	0.912373	0.677729	0.965957
993	N	0.790204	0.592983	0.967428
994	H	0.764023	0.585973	0.965977
995	N	0.801449	0.708134	0.967485
996	H	0.820614	0.734317	0.965997
997	C	0.737346	0.774575	0.32893
998	C	0.733456	0.751448	0.293053
999	C	0.743529	0.725308	0.298953
1000	C	0.761727	0.725266	0.005139
1001	C	0.765741	0.748491	0.040966
1002	C	0.755594	0.774583	0.035087
1003	C	0.732785	0.696888	0.264378
1004	H	0.705654	0.687405	0.253714
1005	H	0.733099	0.673492	0.275844
1006	H	0.750267	0.707253	0.235603
1007	C	0.720995	0.756492	0.248443
1008	H	0.734225	0.784494	0.239986
1009	H	0.692532	0.745955	0.249266
1010	H	0.726689	0.744088	0.220768
1011	C	0.778415	0.743594	0.085505
1012	H	0.765012	0.715637	0.094237
1013	H	0.773132	0.75631	0.11318
1014	H	0.806831	0.753872	0.084361
1015	C	0.766298	0.803018	0.069627
1016	H	0.765716	0.826293	0.058234
1017	H	0.793517	0.812705	0.080056
1018	H	0.748972	0.792588	0.098534
1019	C	0.77874	0.702597	0.007079
1020	H	0.757764	0.675056	0.009419
1021	H	0.795395	0.707491	0.03623
1022	C	0.720052	0.796988	0.327095
1023	H	0.703324	0.791944	0.297979
1024	H	0.740855	0.8246	0.324753
1025	C	0.723711	0.962423	0.328911
1026	C	0.746767	0.981654	0.292971
1027	C	0.772936	0.517863	0.29884
1028	C	0.773061	0.536115	0.005056
1029	C	0.749879	0.516915	0.040926
1030	C	0.723766	0.980678	0.035082
1031	C	0.8013	0.535511	0.264194
1032	H	0.810735	0.517841	0.25346
1033	H	0.824732	0.559205	0.275623
1034	H	0.790904	0.542649	0.235472
1035	C	0.741635	0.964143	0.24835
1036	H	0.713611	0.949351	0.23999
1037	H	0.75219	0.946228	0.249088
1038	H	0.753964	0.982239	0.22066
1039	C	0.754839	0.534498	0.085469
1040	H	0.782807	0.549028	0.09415
1041	H	0.742142	0.516515	0.113156
1042	H	0.744592	0.552663	0.084356
1043	C	0.695381	0.962956	0.069684
1044	H	0.67209	0.939097	0.058331
1045	H	0.68571	0.98049	0.080156
1046	H	0.705854	0.956068	0.098555
1047	C	0.795766	0.575791	0.00698
1048	H	0.8233	0.582325	0.009247
1049	H	0.790931	0.587564	0.036162
1050	C	0.701298	0.922718	0.327092
1051	H	0.706312	0.911029	0.297957
1052	H	0.673684	0.915912	0.324805
1053	C	0.535902	0.760976	0.328937
1054	C	0.516669	0.764862	0.293049
1055	C	0.980457	0.754798	0.298943
1056	C	0.962208	0.736601	0.005126
1057	C	0.981416	0.732586	0.04096
1058	C	0.517656	0.742732	0.035092
1059	C	0.962793	0.765551	0.264363
1060	H	0.980445	0.79268	0.253705
1061	H	0.939081	0.765239	0.275827
1062	H	0.955674	0.748069	0.235589
1063	C	0.53418	0.777327	0.248443
1064	H	0.548959	0.7641	0.239992
1065	H	0.552111	0.805796	0.249273
1066	H	0.516091	0.771636	0.220768
1067	C	0.963839	0.719913	0.085498
1068	H	0.949283	0.733317	0.094219
1069	H	0.981826	0.725192	0.113172
1070	H	0.945695	0.691494	0.084348
1071	C	0.535381	0.732032	0.069645
1072	H	0.559243	0.732615	0.058262
1073	H	0.51785	0.704813	0.080071
1074	H	0.54227	0.749358	0.098549
1075	C	0.922529	0.719594	0.007058
1076	H	0.91597	0.740574	0.009402
1077	H	0.910764	0.702935	0.036202
1078	C	0.575607	0.778268	0.327111
1079	H	0.587295	0.794991	0.297993
1080	H	0.582414	0.757462	0.324781
1081	C	0.681034	0.812104	0.367199
1082	N	0.64535	0.797183	0.367386
1083	C	0.62974	0.817293	0.367212
1084	N	0.650502	0.852977	0.367372
1085	C	0.686221	0.868586	0.367186
1086	N	0.701145	0.847825	0.367359
1087	N	0.592575	0.800992	0.366756
1088	H	0.585263	0.819938	0.368298
1089	N	0.707086	0.90575	0.366713
1090	H	0.733346	0.913063	0.368221
1091	N	0.697334	0.79124	0.366743
1092	H	0.678385	0.764981	0.368294
1093	C	0.817353	0.686909	0.300358
1094	N	0.852997	0.701447	0.300178
1095	C	0.868225	0.680989	0.300338
1096	N	0.847121	0.645347	0.300147
1097	C	0.811432	0.630115	0.300326
1098	N	0.796896	0.651222	0.300169
1099	N	0.905356	0.696894	0.30079
1100	H	0.912373	0.677729	0.29929
1101	N	0.790204	0.592983	0.300761
1102	H	0.764023	0.585973	0.29931
1103	N	0.801449	0.708134	0.300818
1104	H	0.820614	0.734317	0.29933
1105	C	0.737346	0.774575	0.662262
1106	C	0.733456	0.751448	0.626387
1107	C	0.743529	0.725308	0.632286
1108	C	0.761727	0.725266	0.338471
1109	C	0.765741	0.748491	0.3743
1110	C	0.755594	0.774583	0.368421
1111	C	0.732785	0.696888	0.597712
1112	H	0.705654	0.687405	0.587047
1113	H	0.733099	0.673492	0.609177
1114	H	0.750267	0.707253	0.568934
1115	C	0.720995	0.756492	0.581777
1116	H	0.734225	0.784494	0.573318
1117	H	0.692532	0.745955	0.582599
1118	H	0.726689	0.744088	0.554101
1119	C	0.778415	0.743594	0.41884
1120	H	0.765012	0.715637	0.427568
1121	H	0.773132	0.75631	0.446512
1122	H	0.806831	0.753872	0.417695
1123	C	0.766298	0.803018	0.402961
1124	H	0.765716	0.826293	0.391566
1125	H	0.793517	0.812705	0.41339
1126	H	0.748972	0.792588	0.431865
1127	C	0.77874	0.702597	0.340412
1128	H	0.757764	0.675056	0.342752
1129	H	0.795395	0.707491	0.369563
1130	C	0.720052	0.796988	0.660428
1131	H	0.703324	0.791944	0.631314
1132	H	0.740855	0.8246	0.658088
1133	C	0.723711	0.962423	0.662245
1134	C	0.746767	0.981654	0.626304
1135	C	0.772936	0.517863	0.632173
1136	C	0.773061	0.536115	0.338388
1137	C	0.749879	0.516915	0.37426
1138	C	0.723766	0.980678	0.368414
1139	C	0.8013	0.535511	0.597526
1140	H	0.810735	0.517841	0.586794
1141	H	0.824732	0.559205	0.608957
1142	H	0.790904	0.542649	0.568805
1143	C	0.741635	0.964143	0.581684
1144	H	0.713611	0.949351	0.573322
1145	H	0.75219	0.946228	0.582423
1146	H	0.753964	0.982239	0.553994
1147	C	0.754839	0.534498	0.418803
1148	H	0.782807	0.549028	0.427481
1149	H	0.742142	0.516515	0.446489
1150	H	0.744592	0.552663	0.417691
1151	C	0.695381	0.962956	0.403018
1152	H	0.67209	0.939097	0.391663
1153	H	0.68571	0.98049	0.41349
1154	H	0.705854	0.956068	0.431889
1155	C	0.795766	0.575791	0.340312
1156	H	0.8233	0.582325	0.342579
1157	H	0.790931	0.587564	0.369496
1158	C	0.701298	0.922718	0.660425
1159	H	0.706312	0.911029	0.63129
1160	H	0.673684	0.915912	0.658138
1161	C	0.535902	0.760976	0.662269
1162	C	0.516669	0.764862	0.626384
1163	C	0.980457	0.754798	0.632276
1164	C	0.962208	0.736601	0.338458
1165	C	0.981416	0.732586	0.374293
1166	C	0.517656	0.742732	0.368424
1167	C	0.962793	0.765551	0.597696
1168	H	0.980445	0.79268	0.587037
1169	H	0.939081	0.765239	0.60916
1170	H	0.955674	0.748069	0.568921
1171	C	0.53418	0.777327	0.581777
1172	H	0.548959	0.7641	0.573325
1173	H	0.552111	0.805796	0.582606
1174	H	0.516091	0.771636	0.554101
1175	C	0.963839	0.719913	0.41883
1176	H	0.949283	0.733317	0.427551
1177	H	0.981826	0.725192	0.446506
1178	H	0.945695	0.691494	0.417681
1179	C	0.535381	0.732032	0.402978
1180	H	0.559243	0.732615	0.391596
1181	H	0.51785	0.704813	0.413404
1182	H	0.54227	0.749358	0.431882
1183	C	0.922529	0.719594	0.340392
1184	H	0.91597	0.740574	0.342735
1185	H	0.910764	0.702935	0.369536
1186	C	0.575607	0.778268	0.660445
1187	H	0.587295	0.794991	0.631327
1188	H	0.582414	0.757462	0.658114
1189	C	0.681034	0.812104	0.700534
1190	N	0.64535	0.797183	0.700717
1191	C	0.62974	0.817293	0.700544
1192	N	0.650502	0.852977	0.700707
1193	C	0.686221	0.868586	0.700521
1194	N	0.701145	0.847825	0.700694
1195	N	0.592575	0.800992	0.700091
1196	H	0.585263	0.819938	0.701632
1197	N	0.707086	0.90575	0.700048
1198	H	0.733346	0.913063	0.701553
1199	N	0.697334	0.79124	0.700078
1200	H	0.678385	0.764981	0.701629
1201	C	0.817353	0.686909	0.633691
1202	N	0.852997	0.701447	0.633511
1203	C	0.868225	0.680989	0.633671
1204	N	0.847121	0.645347	0.633481
1205	C	0.811432	0.630115	0.633661
1206	N	0.796896	0.651222	0.633501
1207	N	0.905356	0.696894	0.634123
1208	H	0.912373	0.677729	0.632622
1209	N	0.790204	0.592983	0.634093
1210	H	0.764023	0.585973	0.632642
1211	N	0.801449	0.708134	0.63415
1212	H	0.820614	0.734317	0.632662
1213	C	0.737346	0.774575	0.995597
1214	C	0.733456	0.751448	0.959718
1215	C	0.743529	0.725308	0.96562
1216	C	0.761727	0.725266	0.671806
1217	C	0.765741	0.748491	0.707631
1218	C	0.755594	0.774583	0.701752
1219	C	0.732785	0.696888	0.931044
1220	H	0.705654	0.687405	0.920381
1221	H	0.733099	0.673492	0.942512
1222	H	0.750267	0.707253	0.902269
1223	C	0.720995	0.756492	0.915108
1224	H	0.734225	0.784494	0.906653
1225	H	0.692532	0.745955	0.915931
1226	H	0.726689	0.744088	0.887432
1227	C	0.778415	0.743594	0.752171
1228	H	0.765012	0.715637	0.760903
1229	H	0.773132	0.75631	0.779847
1230	H	0.806831	0.753872	0.751026
1231	C	0.766298	0.803018	0.736292
1232	H	0.765716	0.826293	0.724901
1233	H	0.793517	0.812705	0.746722
1234	H	0.748972	0.792588	0.7652
1235	C	0.77874	0.702597	0.673747
1236	H	0.757764	0.675056	0.676083
1237	H	0.795395	0.707491	0.702894
1238	C	0.720052	0.796988	0.993763
1239	H	0.703324	0.791944	0.964645
1240	H	0.740855	0.8246	0.991419
1241	C	0.723711	0.962423	0.995577
1242	C	0.746767	0.981654	0.959639
1243	C	0.772936	0.517863	0.965507
1244	C	0.773061	0.536115	0.671723
1245	C	0.749879	0.516915	0.707591
1246	C	0.723766	0.980678	0.701749
1247	C	0.8013	0.535511	0.930861
1248	H	0.810735	0.517841	0.920125
1249	H	0.824732	0.559205	0.942289
1250	H	0.790904	0.542649	0.902139
1251	C	0.741635	0.964143	0.915015
1252	H	0.713611	0.949351	0.906656
1253	H	0.75219	0.946228	0.915754
1254	H	0.753964	0.982239	0.887326
1255	C	0.754839	0.534498	0.752134
1256	H	0.782807	0.549028	0.760816
1257	H	0.742142	0.516515	0.779821
1258	H	0.744592	0.552663	0.751023
1259	C	0.695381	0.962956	0.736349
1260	H	0.67209	0.939097	0.724998
1261	H	0.68571	0.98049	0.746822
1262	H	0.705854	0.956068	0.76522
1263	C	0.795766	0.575791	0.673647
1264	H	0.8233	0.582325	0.675914
1265	H	0.790931	0.587564	0.702827
1266	C	0.701298	0.922718	0.993759
1267	H	0.706312	0.911029	0.964622
1268	H	0.673684	0.915912	0.991472
1269	C	0.535902	0.760976	0.995603
1270	C	0.516669	0.764862	0.959715
1271	C	0.980457	0.754798	0.96561
1272	C	0.962208	0.736601	0.671793
1273	C	0.981416	0.732586	0.707628
1274	C	0.517656	0.742732	0.701759
1275	C	0.962793	0.765551	0.93103
1276	H	0.980445	0.79268	0.920371
1277	H	0.939081	0.765239	0.942492
1278	H	0.955674	0.748069	0.902256
1279	C	0.53418	0.777327	0.915108
1280	H	0.548959	0.7641	0.90666
1281	H	0.552111	0.805796	0.915941
1282	H	0.516091	0.771636	0.887432
1283	C	0.963839	0.719913	0.752164
1284	H	0.949283	0.733317	0.760886
1285	H	0.981826	0.725192	0.779837
1286	H	0.945695	0.691494	0.751013
1287	C	0.535381	0.732032	0.736309
1288	H	0.559243	0.732615	0.724928
1289	H	0.51785	0.704813	0.746735
1290	H	0.54227	0.749358	0.765214
1291	C	0.922529	0.719594	0.673723
1292	H	0.91597	0.740574	0.676067
1293	H	0.910764	0.702935	0.702867
1294	C	0.575607	0.778268	0.993776
1295	H	0.587295	0.794991	0.964658
1296	H	0.582414	0.757462	0.991446
