data_C396H288N144O108_2018-02-15_10:32:46
#******************************************
#
# CIF file created by Zeo++
# Zeo++ is an open source package to
# analyze microporous materials
#
#*******************************************

_cell_length_a		43.5783   
_cell_length_b		43.5782   
_cell_length_c		30.1028   
_cell_angle_alpha		90   
_cell_angle_beta		90   
_cell_angle_gamma		120   

_symmetry_space_group_name_H-M		'P1'
_symmetry_Int_Tables_number		1
_symmetry_cell_setting		Monoclinic

loop_
_symmetry_equiv_pos_as_xyz
'+x,+y,+z'

loop_
_atom_site_label
_atom_site_type_symbol
_atom_site_fract_x
_atom_site_fract_y
_atom_site_fract_z
1	C	0.177325	0.369151	0.955574
2	C	0.1405	0.344442	0.955055
3	C	0.126555	0.307314	0.955451
4	C	0.151272	0.295205	0.954989
5	C	0.1884	0.318387	0.288813
6	C	0.200519	0.355218	0.955016
7	H	0.141762	0.268649	0.957623
8	H	0.227065	0.372253	0.957809
9	H	0.123454	0.353949	0.957736
10	C	0.189754	0.405849	0.962257
11	C	0.212677	0.305963	0.295461
12	C	0.089851	0.283027	0.962048
13	O	0.246974	0.330406	0.970898
14	O	0.16531	0.415688	0.971094
15	O	0.079996	0.248726	0.970792
16	C	0.32139	0.128318	0.039784
17	C	0.357221	0.155838	0.039932
18	C	0.367431	0.192231	0.039797
19	C	0.339904	0.200532	0.039901
20	C	0.303511	0.174354	0.373142
21	C	0.295207	0.138525	0.039926
22	H	0.346809	0.226523	0.037256
23	H	0.269214	0.119442	0.037291
24	H	0.376306	0.148935	0.037266
25	C	0.312636	0.092351	0.034927
26	C	0.276299	0.183105	0.368242
27	C	0.403392	0.219443	0.034883
28	O	0.243227	0.156745	0.02424
29	O	0.338993	0.085636	0.024251
30	O	0.410097	0.252504	0.024169
31	C	0.260769	0.229122	0.023043
32	N	0.233075	0.209457	0.328561
33	C	0.213505	0.221638	0.308199
34	C	0.22271	0.257367	0.314148
35	N	0.249937	0.276758	0.009221
36	C	0.268842	0.264433	0.03089
37	H	0.193175	0.205118	0.287766
38	O	0.295813	0.287227	0.058056
39	C	0.284075	0.287696	0.102586
40	H	0.307	0.306268	0.122044
41	H	0.272728	0.261635	0.118247
42	H	0.264677	0.296638	0.103252
43	N	0.203991	0.271169	0.294765
44	H	0.182492	0.254482	0.279209
45	N	0.281404	0.216487	0.039755
46	H	0.302346	0.233353	0.056035
47	C	0.266618	0.030799	0.023111
48	N	0.286271	0.022764	0.328615
49	C	0.274082	0.491006	0.308268
50	C	0.238357	0.464482	0.314247
51	N	0.218981	0.472325	0.009336
52	C	0.231314	0.00356	0.030992
53	H	0.290592	0.487193	0.28782
54	O	0.208532	0.007742	0.058176
55	C	0.208095	0.995559	0.102711
56	H	0.189534	0.999916	0.122183
57	H	0.234167	0.010287	0.118345
58	H	0.19916	0.967221	0.103393
59	N	0.224548	0.431959	0.294869
60	H	0.241226	0.427148	0.279287
61	N	0.279257	0.064075	0.039802
62	H	0.262397	0.068157	0.056087
63	C	0.464935	0.234965	0.022996
64	N	0.472959	0.262651	0.328503
65	C	0.004705	0.282211	0.308124
66	C	0.031223	0.272995	0.314056
67	N	0.023393	0.245781	0.009147
68	C	0.492171	0.226888	0.030835
69	H	0.008512	0.302537	0.287687
70	O	0.488	0.199926	0.058015
71	C	0.500222	0.211681	0.102536
72	H	0.495872	0.188763	0.122006
73	H	0.485516	0.223036	0.118197
74	H	0.528565	0.231076	0.103184
75	N	0.063746	0.291718	0.294682
76	H	0.068566	0.313223	0.279135
77	N	0.43167	0.214339	0.039729
78	H	0.427599	0.193406	0.056024
79	C	0.177325	0.369151	0.288909
80	C	0.1405	0.344442	0.288388
81	C	0.126555	0.307314	0.288784
82	C	0.151272	0.295205	0.288323
83	C	0.1884	0.318387	0.622146
84	C	0.200519	0.355218	0.288349
85	H	0.141762	0.268649	0.290958
86	H	0.227065	0.372253	0.291144
87	H	0.123454	0.353949	0.291072
88	C	0.189754	0.405849	0.295591
89	C	0.212677	0.305963	0.628793
90	C	0.089851	0.283027	0.295384
91	O	0.246974	0.330406	0.304233
92	O	0.16531	0.415688	0.304427
93	O	0.079996	0.248726	0.304125
94	C	0.32139	0.128318	0.373119
95	C	0.357221	0.155838	0.373265
96	C	0.367431	0.192231	0.373129
97	C	0.339904	0.200532	0.373235
98	C	0.303511	0.174354	0.706474
99	C	0.295207	0.138525	0.373258
100	H	0.346809	0.226523	0.370591
101	H	0.269214	0.119442	0.370624
102	H	0.376306	0.148935	0.370601
103	C	0.312636	0.092351	0.368259
104	C	0.276299	0.183105	0.701574
105	C	0.403392	0.219443	0.368215
106	O	0.243227	0.156745	0.357572
107	O	0.338993	0.085636	0.357585
108	O	0.410097	0.252504	0.357502
109	C	0.260769	0.229122	0.356376
110	N	0.233075	0.209457	0.661893
111	C	0.213505	0.221638	0.641533
112	C	0.22271	0.257367	0.647482
113	N	0.249937	0.276758	0.342553
114	C	0.268842	0.264433	0.364222
115	H	0.193175	0.205118	0.621099
116	O	0.295813	0.287227	0.391389
117	C	0.284075	0.287696	0.43592
118	H	0.307	0.306268	0.455377
119	H	0.272728	0.261635	0.45158
120	H	0.264677	0.296638	0.436585
121	N	0.203991	0.271169	0.628099
122	H	0.182492	0.254482	0.612542
123	N	0.281404	0.216487	0.373089
124	H	0.302346	0.233353	0.389366
125	C	0.266618	0.030799	0.356442
126	N	0.286271	0.022764	0.661946
127	C	0.274082	0.491006	0.641599
128	C	0.238357	0.464482	0.647582
129	N	0.218981	0.472325	0.34267
130	C	0.231314	0.00356	0.364325
131	H	0.290592	0.487193	0.621152
132	O	0.208532	0.007742	0.391509
133	C	0.208095	0.995559	0.436043
134	H	0.189534	0.999916	0.455516
135	H	0.234167	0.010287	0.451676
136	H	0.19916	0.967221	0.436727
137	N	0.224548	0.431959	0.628202
138	H	0.241226	0.427148	0.612618
139	N	0.279257	0.064075	0.373135
140	H	0.262397	0.068157	0.38942
141	C	0.464935	0.234965	0.35633
142	N	0.472959	0.262651	0.661836
143	C	0.004705	0.282211	0.641456
144	C	0.031223	0.272995	0.647389
145	N	0.023393	0.245781	0.34248
146	C	0.492171	0.226888	0.364169
147	H	0.008512	0.302537	0.62102
148	O	0.488	0.199926	0.391346
149	C	0.500222	0.211681	0.43587
150	H	0.495872	0.188763	0.455337
151	H	0.485516	0.223036	0.45153
152	H	0.528565	0.231076	0.436518
153	N	0.063746	0.291718	0.628016
154	H	0.068566	0.313223	0.612469
155	N	0.43167	0.214339	0.373062
156	H	0.427599	0.193406	0.389356
157	C	0.177325	0.369151	0.622242
158	C	0.1405	0.344442	0.621721
159	C	0.126555	0.307314	0.622116
160	C	0.151272	0.295205	0.621657
161	C	0.1884	0.318387	0.955481
162	C	0.200519	0.355218	0.621681
163	H	0.141762	0.268649	0.624292
164	H	0.227065	0.372253	0.624478
165	H	0.123454	0.353949	0.624405
166	C	0.189754	0.405849	0.628923
167	C	0.212677	0.305963	0.962128
168	C	0.089851	0.283027	0.628717
169	O	0.246974	0.330406	0.637566
170	O	0.16531	0.415688	0.637759
171	O	0.079996	0.248726	0.637457
172	C	0.32139	0.128318	0.70645
173	C	0.357221	0.155838	0.706596
174	C	0.367431	0.192231	0.706464
175	C	0.339904	0.200532	0.706567
176	C	0.303511	0.174354	0.039808
177	C	0.295207	0.138525	0.706593
178	H	0.346809	0.226523	0.703922
179	H	0.269214	0.119442	0.703956
180	H	0.376306	0.148935	0.703932
181	C	0.312636	0.092351	0.701594
182	C	0.276299	0.183105	0.034908
183	C	0.403392	0.219443	0.701547
184	O	0.243227	0.156745	0.690907
185	O	0.338993	0.085636	0.690917
186	O	0.410097	0.252504	0.690834
187	C	0.260769	0.229122	0.689708
188	N	0.233075	0.209457	0.995228
189	C	0.213505	0.221638	0.974864
190	C	0.22271	0.257367	0.980814
191	N	0.249937	0.276758	0.675885
192	C	0.268842	0.264433	0.697557
193	H	0.193175	0.205118	0.954431
194	O	0.295813	0.287227	0.724721
195	C	0.284075	0.287696	0.769252
196	H	0.307	0.306268	0.788709
197	H	0.272728	0.261635	0.784912
198	H	0.264677	0.296638	0.769916
199	N	0.203991	0.271169	0.96143
200	H	0.182492	0.254482	0.945874
201	N	0.281404	0.216487	0.70642
202	H	0.302346	0.233353	0.722701
203	C	0.266618	0.030799	0.689777
204	N	0.286271	0.022764	0.995281
205	C	0.274082	0.491006	0.974934
206	C	0.238357	0.464482	0.980914
207	N	0.218981	0.472325	0.676001
208	C	0.231314	0.00356	0.697657
209	H	0.290592	0.487193	0.954484
210	O	0.208532	0.007742	0.724841
211	C	0.208095	0.995559	0.769375
212	H	0.189534	0.999916	0.788848
213	H	0.234167	0.010287	0.785011
214	H	0.19916	0.967221	0.770059
215	N	0.224548	0.431959	0.961533
216	H	0.241226	0.427148	0.945953
217	N	0.279257	0.064075	0.706467
218	H	0.262397	0.068157	0.722751
219	C	0.464935	0.234965	0.689661
220	N	0.472959	0.262651	0.995168
221	C	0.004705	0.282211	0.974788
222	C	0.031223	0.272995	0.980721
223	N	0.023393	0.245781	0.675812
224	C	0.492171	0.226888	0.697501
225	H	0.008512	0.302537	0.954355
226	O	0.488	0.199926	0.724681
227	C	0.500222	0.211681	0.769202
228	H	0.495872	0.188763	0.788672
229	H	0.485516	0.223036	0.784862
230	H	0.528565	0.231076	0.76985
231	N	0.063746	0.291718	0.961347
232	H	0.068566	0.313223	0.9458
233	N	0.43167	0.214339	0.706394
234	H	0.427599	0.193406	0.722691
235	C	0.177324	0.869149	0.955574
236	C	0.140499	0.844441	0.955055
237	C	0.126554	0.807313	0.955451
238	C	0.151272	0.795204	0.954989
239	C	0.188399	0.818386	0.288813
240	C	0.200519	0.85522	0.955016
241	H	0.141762	0.768648	0.957623
242	H	0.227064	0.872252	0.957809
243	H	0.123453	0.853948	0.957736
244	C	0.189753	0.905848	0.962257
245	C	0.212678	0.805964	0.295461
246	C	0.089852	0.783028	0.962048
247	O	0.246974	0.830408	0.970898
248	O	0.165309	0.915686	0.971094
249	O	0.079996	0.748728	0.970792
250	C	0.321391	0.628319	0.039784
251	C	0.35722	0.655839	0.039932
252	C	0.367431	0.692231	0.039797
253	C	0.339904	0.700532	0.039901
254	C	0.30351	0.674356	0.373142
255	C	0.295207	0.638526	0.039926
256	H	0.346808	0.726523	0.037256
257	H	0.269214	0.619443	0.037291
258	H	0.376305	0.648934	0.037266
259	C	0.312636	0.592352	0.034927
260	C	0.276298	0.683105	0.368242
261	C	0.403392	0.719443	0.034883
262	O	0.243227	0.656746	0.02424
263	O	0.338993	0.585638	0.024251
264	O	0.410096	0.752504	0.024169
265	C	0.260768	0.729123	0.023043
266	N	0.233075	0.709456	0.328561
267	C	0.213504	0.721637	0.308199
268	C	0.222711	0.757369	0.314148
269	N	0.249936	0.776756	0.009221
270	C	0.268841	0.764433	0.03089
271	H	0.193175	0.705119	0.287766
272	O	0.295813	0.787228	0.058056
273	C	0.284074	0.787695	0.102586
274	H	0.306999	0.806266	0.122044
275	H	0.272728	0.761635	0.118247
276	H	0.264677	0.79664	0.103252
277	N	0.20399	0.771168	0.294765
278	H	0.182493	0.754483	0.279209
279	N	0.281404	0.716489	0.039755
280	H	0.302346	0.733354	0.056035
281	C	0.266618	0.530799	0.023111
282	N	0.286271	0.522765	0.328615
283	C	0.274082	0.991007	0.308267
284	C	0.238357	0.964481	0.314247
285	N	0.21898	0.972324	0.009336
286	C	0.231314	0.50356	0.030992
287	H	0.290592	0.987194	0.28782
288	O	0.208531	0.507741	0.058176
289	C	0.208097	0.495561	0.102711
290	H	0.189534	0.499917	0.122183
291	H	0.234167	0.510288	0.118345
292	H	0.199161	0.467219	0.103393
293	N	0.224548	0.931958	0.294869
294	H	0.241226	0.927149	0.279287
295	N	0.279257	0.564077	0.039802
296	H	0.262397	0.568158	0.056087
297	C	0.464935	0.734965	0.022996
298	N	0.472959	0.762652	0.328503
299	C	0.004703	0.78221	0.308124
300	C	0.031222	0.772997	0.314056
301	N	0.023392	0.745781	0.009147
302	C	0.492171	0.726889	0.030835
303	H	0.008513	0.802538	0.287687
304	O	0.488	0.699925	0.058015
305	C	0.500223	0.711682	0.102536
306	H	0.495872	0.688762	0.122006
307	H	0.485515	0.723036	0.118197
308	H	0.528563	0.731075	0.103184
309	N	0.063745	0.791717	0.294682
310	H	0.068566	0.813222	0.279135
311	N	0.43167	0.71434	0.039729
312	H	0.427599	0.693407	0.056024
313	C	0.177324	0.869149	0.288909
314	C	0.140499	0.844441	0.288388
315	C	0.126554	0.807313	0.288784
316	C	0.151272	0.795204	0.288323
317	C	0.188399	0.818386	0.622146
318	C	0.200519	0.85522	0.288349
319	H	0.141762	0.768648	0.290958
320	H	0.227064	0.872252	0.291144
321	H	0.123453	0.853948	0.291072
322	C	0.189753	0.905848	0.295591
323	C	0.212678	0.805964	0.628793
324	C	0.089852	0.783028	0.295384
325	O	0.246974	0.830408	0.304233
326	O	0.165309	0.915686	0.304427
327	O	0.079996	0.748728	0.304125
328	C	0.321391	0.628319	0.373119
329	C	0.35722	0.655839	0.373265
330	C	0.367431	0.692231	0.373129
331	C	0.339904	0.700532	0.373235
332	C	0.30351	0.674356	0.706474
333	C	0.295207	0.638526	0.373258
334	H	0.346808	0.726523	0.370591
335	H	0.269214	0.619443	0.370624
336	H	0.376305	0.648934	0.370601
337	C	0.312636	0.592352	0.368259
338	C	0.276298	0.683105	0.701574
339	C	0.403392	0.719443	0.368215
340	O	0.243227	0.656746	0.357572
341	O	0.338993	0.585638	0.357585
342	O	0.410096	0.752504	0.357502
343	C	0.260768	0.729123	0.356376
344	N	0.233075	0.709456	0.661893
345	C	0.213504	0.721637	0.641533
346	C	0.222711	0.757369	0.647482
347	N	0.249936	0.776756	0.342553
348	C	0.268841	0.764433	0.364222
349	H	0.193175	0.705119	0.621099
350	O	0.295813	0.787228	0.391389
351	C	0.284074	0.787695	0.43592
352	H	0.306999	0.806266	0.455377
353	H	0.272728	0.761635	0.45158
354	H	0.264677	0.79664	0.436585
355	N	0.20399	0.771168	0.628099
356	H	0.182493	0.754483	0.612542
357	N	0.281404	0.716489	0.373089
358	H	0.302346	0.733354	0.389366
359	C	0.266618	0.530799	0.356442
360	N	0.286271	0.522765	0.661946
361	C	0.274082	0.991007	0.641599
362	C	0.238357	0.964481	0.647579
363	N	0.21898	0.972324	0.34267
364	C	0.231314	0.50356	0.364325
365	H	0.290592	0.987194	0.621152
366	O	0.208531	0.507741	0.391509
367	C	0.208097	0.495561	0.436043
368	H	0.189534	0.499917	0.455516
369	H	0.234167	0.510288	0.451676
370	H	0.199161	0.467219	0.436727
371	N	0.224548	0.931958	0.628202
372	H	0.241226	0.927149	0.612618
373	N	0.279257	0.564077	0.373135
374	H	0.262397	0.568158	0.38942
375	C	0.464935	0.734965	0.35633
376	N	0.472959	0.762652	0.661836
377	C	0.004703	0.78221	0.641456
378	C	0.031222	0.772997	0.647389
379	N	0.023392	0.745781	0.34248
380	C	0.492171	0.726889	0.364169
381	H	0.008513	0.802538	0.62102
382	O	0.488	0.699925	0.391346
383	C	0.500223	0.711682	0.43587
384	H	0.495872	0.688762	0.45534
385	H	0.485515	0.723036	0.45153
386	H	0.528563	0.731075	0.436518
387	N	0.063745	0.791717	0.628016
388	H	0.068566	0.813222	0.612469
389	N	0.43167	0.71434	0.373062
390	H	0.427599	0.693407	0.389356
391	C	0.177324	0.869149	0.622242
392	C	0.140499	0.844441	0.621721
393	C	0.126554	0.807313	0.622116
394	C	0.151272	0.795204	0.621657
395	C	0.188399	0.818386	0.955481
396	C	0.200519	0.85522	0.621681
397	H	0.141762	0.768648	0.624292
398	H	0.227064	0.872252	0.624478
399	H	0.123453	0.853948	0.624405
400	C	0.189753	0.905848	0.628923
401	C	0.212678	0.805964	0.962128
402	C	0.089852	0.783028	0.628717
403	O	0.246974	0.830408	0.637566
404	O	0.165309	0.915686	0.637759
405	O	0.079996	0.748728	0.637457
406	C	0.321391	0.628319	0.70645
407	C	0.35722	0.655839	0.706596
408	C	0.367431	0.692231	0.706464
409	C	0.339904	0.700532	0.706567
410	C	0.30351	0.674356	0.039808
411	C	0.295207	0.638526	0.706593
412	H	0.346808	0.726523	0.703922
413	H	0.269214	0.619443	0.703956
414	H	0.376305	0.648934	0.703932
415	C	0.312636	0.592352	0.701594
416	C	0.276298	0.683105	0.034908
417	C	0.403392	0.719443	0.701547
418	O	0.243227	0.656746	0.690907
419	O	0.338993	0.585638	0.690917
420	O	0.410096	0.752504	0.690834
421	C	0.260768	0.729123	0.689708
422	N	0.233075	0.709456	0.995228
423	C	0.213504	0.721637	0.974864
424	C	0.222711	0.757369	0.980814
425	N	0.249936	0.776756	0.675885
426	C	0.268841	0.764433	0.697557
427	H	0.193175	0.705119	0.954431
428	O	0.295813	0.787228	0.724721
429	C	0.284074	0.787695	0.769252
430	H	0.306999	0.806266	0.788709
431	H	0.272728	0.761635	0.784912
432	H	0.264677	0.79664	0.769916
433	N	0.20399	0.771168	0.96143
434	H	0.182493	0.754483	0.945874
435	N	0.281404	0.716489	0.70642
436	H	0.302346	0.733354	0.722701
437	C	0.266618	0.530799	0.689777
438	N	0.286271	0.522765	0.995281
439	C	0.274082	0.991007	0.974934
440	C	0.238357	0.964481	0.980914
441	N	0.21898	0.972324	0.676001
442	C	0.231314	0.50356	0.697657
443	H	0.290592	0.987194	0.954484
444	O	0.208531	0.507741	0.724841
445	C	0.208097	0.495561	0.769378
446	H	0.189534	0.499917	0.788848
447	H	0.234167	0.510288	0.785011
448	H	0.199161	0.467219	0.770059
449	N	0.224548	0.931958	0.961533
450	H	0.241226	0.927149	0.945953
451	N	0.279257	0.564077	0.706467
452	H	0.262397	0.568158	0.722751
453	C	0.464935	0.734965	0.689661
454	N	0.472959	0.762652	0.995168
455	C	0.004703	0.78221	0.974788
456	C	0.031222	0.772997	0.980721
457	N	0.023392	0.745781	0.675812
458	C	0.492171	0.726889	0.697501
459	H	0.008513	0.802538	0.954355
460	O	0.488	0.699925	0.724681
461	C	0.500223	0.711682	0.769202
462	H	0.495872	0.688762	0.788672
463	H	0.485515	0.723036	0.784862
464	H	0.528563	0.731075	0.76985
465	N	0.063745	0.791717	0.961347
466	H	0.068566	0.813222	0.9458
467	N	0.43167	0.71434	0.706394
468	H	0.427599	0.693407	0.722691
469	C	0.677325	0.369151	0.955574
470	C	0.6405	0.344442	0.955055
471	C	0.626555	0.307314	0.955451
472	C	0.651273	0.295205	0.954989
473	C	0.688399	0.318387	0.288813
474	C	0.700518	0.355218	0.955016
475	H	0.641763	0.268649	0.957623
476	H	0.727065	0.372253	0.957809
477	H	0.623453	0.353949	0.957736
478	C	0.689754	0.405849	0.962257
479	C	0.712677	0.305963	0.295461
480	C	0.589851	0.283027	0.962048
481	O	0.746974	0.330406	0.970898
482	O	0.66531	0.415688	0.971094
483	O	0.579996	0.248726	0.970792
484	C	0.821391	0.128318	0.039784
485	C	0.857219	0.155838	0.039932
486	C	0.86743	0.192231	0.039797
487	C	0.839905	0.200532	0.039901
488	C	0.803511	0.174354	0.373142
489	C	0.795206	0.138525	0.039926
490	H	0.846808	0.226523	0.037256
491	H	0.769214	0.119442	0.037291
492	H	0.876307	0.148935	0.037266
493	C	0.812635	0.092351	0.034927
494	C	0.776299	0.183105	0.368242
495	C	0.903391	0.219443	0.034883
496	O	0.743228	0.156745	0.02424
497	O	0.838992	0.085636	0.024251
498	O	0.910096	0.252504	0.024169
499	C	0.760767	0.229122	0.023043
500	N	0.733075	0.209457	0.328561
501	C	0.713504	0.221638	0.308199
502	C	0.722711	0.257367	0.314148
503	N	0.749937	0.276758	0.009221
504	C	0.768843	0.264433	0.03089
505	H	0.693176	0.205118	0.287766
506	O	0.795814	0.287227	0.058056
507	C	0.784074	0.287696	0.102586
508	H	0.807	0.306268	0.122044
509	H	0.772728	0.261635	0.118247
510	H	0.764676	0.296638	0.103252
511	N	0.703991	0.271169	0.294765
512	H	0.682492	0.254482	0.279209
513	N	0.781404	0.216487	0.039755
514	H	0.802345	0.233353	0.056035
515	C	0.766617	0.030799	0.023111
516	N	0.78627	0.022764	0.328615
517	C	0.774082	0.491006	0.308268
518	C	0.738357	0.464482	0.314247
519	N	0.71898	0.472325	0.009336
520	C	0.731313	0.00356	0.030992
521	H	0.790591	0.487193	0.28782
522	O	0.708531	0.007742	0.058176
523	C	0.708096	0.995559	0.102711
524	H	0.689533	0.999916	0.122183
525	H	0.734167	0.010287	0.118345
526	H	0.699161	0.967221	0.103393
527	N	0.724549	0.431959	0.294869
528	H	0.741226	0.427148	0.279287
529	N	0.779256	0.064075	0.039802
530	H	0.762398	0.068157	0.056087
531	C	0.964934	0.234965	0.022996
532	N	0.97296	0.262651	0.328503
533	C	0.504703	0.282211	0.308124
534	C	0.531223	0.272995	0.314056
535	N	0.523392	0.245781	0.009147
536	C	0.992172	0.226888	0.030835
537	H	0.508512	0.302537	0.287687
538	O	0.988001	0.199926	0.058015
539	C	0.000223	0.211681	0.102536
540	H	0.995873	0.188763	0.122006
541	H	0.985515	0.223036	0.118197
542	H	0.028564	0.231076	0.103184
543	N	0.563746	0.291718	0.294682
544	H	0.568566	0.313223	0.279135
545	N	0.931672	0.214339	0.039729
546	H	0.927598	0.193406	0.056024
547	C	0.677325	0.369151	0.288909
548	C	0.6405	0.344442	0.288388
549	C	0.626555	0.307314	0.288784
550	C	0.651273	0.295205	0.288323
551	C	0.688399	0.318387	0.622146
552	C	0.700518	0.355218	0.288349
553	H	0.641763	0.268649	0.290958
554	H	0.727065	0.372253	0.291144
555	H	0.623453	0.353949	0.291072
556	C	0.689754	0.405849	0.295591
557	C	0.712677	0.305963	0.628793
558	C	0.589851	0.283027	0.295384
559	O	0.746974	0.330406	0.304233
560	O	0.66531	0.415688	0.304427
561	O	0.579996	0.248726	0.304125
562	C	0.821391	0.128318	0.373119
563	C	0.857219	0.155838	0.373265
564	C	0.86743	0.192231	0.373129
565	C	0.839905	0.200532	0.373235
566	C	0.803511	0.174354	0.706474
567	C	0.795206	0.138525	0.373258
568	H	0.846808	0.226523	0.370591
569	H	0.769214	0.119442	0.370624
570	H	0.876307	0.148935	0.370601
571	C	0.812635	0.092351	0.368259
572	C	0.776299	0.183105	0.701574
573	C	0.903391	0.219443	0.368215
574	O	0.743228	0.156745	0.357572
575	O	0.838992	0.085636	0.357585
576	O	0.910096	0.252504	0.357502
577	C	0.760767	0.229122	0.356376
578	N	0.733075	0.209457	0.661893
579	C	0.713504	0.221638	0.641533
580	C	0.722711	0.257367	0.647482
581	N	0.749937	0.276758	0.342553
582	C	0.768843	0.264433	0.364222
583	H	0.693176	0.205118	0.621099
584	O	0.795814	0.287227	0.391389
585	C	0.784074	0.287696	0.43592
586	H	0.807	0.306268	0.455377
587	H	0.772728	0.261635	0.45158
588	H	0.764676	0.296638	0.436585
589	N	0.703991	0.271169	0.628099
590	H	0.682492	0.254482	0.612542
591	N	0.781404	0.216487	0.373089
592	H	0.802345	0.233353	0.389366
593	C	0.766617	0.030799	0.356442
594	N	0.78627	0.022764	0.661946
595	C	0.774082	0.491006	0.641599
596	C	0.738357	0.464482	0.647582
597	N	0.71898	0.472325	0.34267
598	C	0.731313	0.00356	0.364325
599	H	0.790591	0.487193	0.621152
600	O	0.708531	0.007742	0.391509
601	C	0.708096	0.995559	0.436043
602	H	0.689533	0.999916	0.455516
603	H	0.734167	0.010287	0.451676
604	H	0.699161	0.967221	0.436727
605	N	0.724549	0.431959	0.628202
606	H	0.741226	0.427148	0.612618
607	N	0.779256	0.064075	0.373135
608	H	0.762398	0.068157	0.38942
609	C	0.964934	0.234965	0.35633
610	N	0.97296	0.262651	0.661836
611	C	0.504703	0.282211	0.641456
612	C	0.531223	0.272995	0.647389
613	N	0.523392	0.245781	0.34248
614	C	0.992172	0.226888	0.364169
615	H	0.508512	0.302537	0.62102
616	O	0.988001	0.199926	0.391346
617	C	0.000223	0.211681	0.43587
618	H	0.995873	0.188763	0.455337
619	H	0.985515	0.223036	0.45153
620	H	0.028564	0.231076	0.436518
621	N	0.563746	0.291718	0.628016
622	H	0.568566	0.313223	0.612469
623	N	0.931672	0.214339	0.373062
624	H	0.927598	0.193406	0.389356
625	C	0.677325	0.369151	0.622242
626	C	0.6405	0.344442	0.621721
627	C	0.626555	0.307314	0.622116
628	C	0.651273	0.295205	0.621657
629	C	0.688399	0.318387	0.955481
630	C	0.700518	0.355218	0.621681
631	H	0.641763	0.268649	0.624292
632	H	0.727065	0.372253	0.624478
633	H	0.623453	0.353949	0.624405
634	C	0.689754	0.405849	0.628923
635	C	0.712677	0.305963	0.962128
636	C	0.589851	0.283027	0.628717
637	O	0.746974	0.330406	0.637566
638	O	0.66531	0.415688	0.637759
639	O	0.579996	0.248726	0.637457
640	C	0.821391	0.128318	0.70645
641	C	0.857219	0.155838	0.706596
642	C	0.86743	0.192231	0.706464
643	C	0.839905	0.200532	0.706567
644	C	0.803511	0.174354	0.039808
645	C	0.795206	0.138525	0.706593
646	H	0.846808	0.226523	0.703922
647	H	0.769214	0.119442	0.703956
648	H	0.876307	0.148935	0.703932
649	C	0.812635	0.092351	0.701594
650	C	0.776299	0.183105	0.034908
651	C	0.903391	0.219443	0.701547
652	O	0.743228	0.156745	0.690907
653	O	0.838992	0.085636	0.690917
654	O	0.910096	0.252504	0.690834
655	C	0.760767	0.229122	0.689708
656	N	0.733075	0.209457	0.995228
657	C	0.713504	0.221638	0.974864
658	C	0.722711	0.257367	0.980814
659	N	0.749937	0.276758	0.675885
660	C	0.768843	0.264433	0.697557
661	H	0.693176	0.205118	0.954431
662	O	0.795814	0.287227	0.724721
663	C	0.784074	0.287696	0.769252
664	H	0.807	0.306268	0.788709
665	H	0.772728	0.261635	0.784912
666	H	0.764676	0.296638	0.769916
667	N	0.703991	0.271169	0.96143
668	H	0.682492	0.254482	0.945874
669	N	0.781404	0.216487	0.70642
670	H	0.802345	0.233353	0.722701
671	C	0.766617	0.030799	0.689777
672	N	0.78627	0.022764	0.995281
673	C	0.774082	0.491006	0.974934
674	C	0.738357	0.464482	0.980914
675	N	0.71898	0.472325	0.676001
676	C	0.731313	0.00356	0.697657
677	H	0.790591	0.487193	0.954484
678	O	0.708531	0.007742	0.724841
679	C	0.708096	0.995559	0.769375
680	H	0.689533	0.999916	0.788848
681	H	0.734167	0.010287	0.785011
682	H	0.699161	0.967221	0.770059
683	N	0.724549	0.431959	0.961533
684	H	0.741226	0.427148	0.945953
685	N	0.779256	0.064075	0.706467
686	H	0.762398	0.068157	0.722751
687	C	0.964934	0.234965	0.689661
688	N	0.97296	0.262651	0.995168
689	C	0.504703	0.282211	0.974788
690	C	0.531223	0.272995	0.980721
691	N	0.523392	0.245781	0.675812
692	C	0.992172	0.226888	0.697501
693	H	0.508512	0.302537	0.954355
694	O	0.988001	0.199926	0.724681
695	C	0.000223	0.211681	0.769202
696	H	0.995873	0.188763	0.788672
697	H	0.985515	0.223036	0.784862
698	H	0.028564	0.231076	0.76985
699	N	0.563746	0.291718	0.961347
700	H	0.568566	0.313223	0.9458
701	N	0.931672	0.214339	0.706394
702	H	0.927598	0.193406	0.722691
703	C	0.677323	0.869149	0.955574
704	C	0.640499	0.844441	0.955055
705	C	0.626554	0.807313	0.955451
706	C	0.651271	0.795204	0.954989
707	C	0.6884	0.818386	0.288813
708	C	0.700518	0.85522	0.955016
709	H	0.641761	0.768648	0.957623
710	H	0.727064	0.872252	0.957809
711	H	0.623453	0.853948	0.957736
712	C	0.689754	0.905848	0.962257
713	C	0.712677	0.805964	0.295461
714	C	0.589851	0.783028	0.962048
715	O	0.746974	0.830408	0.970898
716	O	0.665309	0.915686	0.971094
717	O	0.579997	0.748728	0.970792
718	C	0.821391	0.628319	0.039784
719	C	0.857219	0.655839	0.039932
720	C	0.867431	0.692231	0.039797
721	C	0.839903	0.700532	0.039901
722	C	0.80351	0.674356	0.373142
723	C	0.795208	0.638526	0.039926
724	H	0.846809	0.726523	0.037256
725	H	0.769213	0.619443	0.037291
726	H	0.876305	0.648934	0.037266
727	C	0.812637	0.592352	0.034927
728	C	0.776298	0.683105	0.368242
729	C	0.903393	0.719443	0.034883
730	O	0.743228	0.656746	0.02424
731	O	0.838991	0.585638	0.024251
732	O	0.910095	0.752504	0.024169
733	C	0.760769	0.729123	0.023043
734	N	0.733074	0.709456	0.328561
735	C	0.713505	0.721637	0.308199
736	C	0.72271	0.757369	0.314148
737	N	0.749936	0.776756	0.009221
738	C	0.768841	0.764433	0.03089
739	H	0.693175	0.705119	0.287766
740	O	0.795813	0.787228	0.058056
741	C	0.784073	0.787695	0.102586
742	H	0.806998	0.806266	0.122044
743	H	0.772727	0.761635	0.118247
744	H	0.764676	0.79664	0.103252
745	N	0.703989	0.771168	0.294765
746	H	0.682493	0.754483	0.279209
747	N	0.781404	0.716489	0.039755
748	H	0.802347	0.733354	0.056035
749	C	0.766619	0.530799	0.023111
750	N	0.786269	0.522765	0.328615
751	C	0.774082	0.991007	0.308267
752	C	0.738355	0.964481	0.314247
753	N	0.718981	0.972324	0.009336
754	C	0.731314	0.50356	0.030992
755	H	0.790592	0.987194	0.28782
756	O	0.70853	0.507741	0.058176
757	C	0.708098	0.495561	0.102711
758	H	0.689534	0.499917	0.122183
759	H	0.734166	0.510288	0.118345
760	H	0.699162	0.467219	0.103393
761	N	0.724547	0.931958	0.294869
762	H	0.741225	0.927149	0.279287
763	N	0.779255	0.564077	0.039802
764	H	0.762396	0.568158	0.056087
765	C	0.964935	0.734965	0.022996
766	N	0.972959	0.762652	0.328503
767	C	0.504703	0.78221	0.308124
768	C	0.531223	0.772997	0.314056
769	N	0.523393	0.745781	0.009147
770	C	0.992172	0.726889	0.030835
771	H	0.508512	0.802538	0.287687
772	O	0.988	0.699925	0.058015
773	C	0.000223	0.711682	0.102536
774	H	0.995872	0.688762	0.122006
775	H	0.985516	0.723036	0.118197
776	H	0.028564	0.731075	0.103184
777	N	0.563745	0.791717	0.294682
778	H	0.568564	0.813222	0.279135
779	N	0.931671	0.71434	0.039729
780	H	0.9276	0.693407	0.056024
781	C	0.677323	0.869149	0.288909
782	C	0.640499	0.844441	0.288388
783	C	0.626554	0.807313	0.288784
784	C	0.651271	0.795204	0.288323
785	C	0.6884	0.818386	0.622146
786	C	0.700518	0.85522	0.288349
787	H	0.641761	0.768648	0.290958
788	H	0.727064	0.872252	0.291144
789	H	0.623453	0.853948	0.291072
790	C	0.689754	0.905848	0.295591
791	C	0.712677	0.805964	0.628793
792	C	0.589851	0.783028	0.295384
793	O	0.746974	0.830408	0.304233
794	O	0.665309	0.915686	0.304427
795	O	0.579997	0.748728	0.304125
796	C	0.821391	0.628319	0.373119
797	C	0.857219	0.655839	0.373265
798	C	0.867431	0.692231	0.373129
799	C	0.839903	0.700532	0.373235
800	C	0.80351	0.674356	0.706474
801	C	0.795208	0.638526	0.373258
802	H	0.846809	0.726523	0.370591
803	H	0.769213	0.619443	0.370624
804	H	0.876305	0.648934	0.370601
805	C	0.812637	0.592352	0.368259
806	C	0.776298	0.683105	0.701574
807	C	0.903393	0.719443	0.368215
808	O	0.743228	0.656746	0.357572
809	O	0.838991	0.585638	0.357585
810	O	0.910095	0.752504	0.357502
811	C	0.760769	0.729123	0.356376
812	N	0.733074	0.709456	0.661893
813	C	0.713505	0.721637	0.641533
814	C	0.72271	0.757369	0.647482
815	N	0.749936	0.776756	0.342553
816	C	0.768841	0.764433	0.364222
817	H	0.693175	0.705119	0.621099
818	O	0.795813	0.787228	0.391389
819	C	0.784073	0.787695	0.43592
820	H	0.806998	0.806266	0.455377
821	H	0.772727	0.761635	0.45158
822	H	0.764676	0.79664	0.436585
823	N	0.703989	0.771168	0.628099
824	H	0.682493	0.754483	0.612542
825	N	0.781404	0.716489	0.373089
826	H	0.802347	0.733354	0.389366
827	C	0.766619	0.530799	0.356442
828	N	0.786269	0.522765	0.661946
829	C	0.774082	0.991007	0.641599
830	C	0.738355	0.964481	0.647579
831	N	0.718981	0.972324	0.34267
832	C	0.731314	0.50356	0.364325
833	H	0.790592	0.987194	0.621152
834	O	0.70853	0.507741	0.391509
835	C	0.708098	0.495561	0.436043
836	H	0.689534	0.499917	0.455516
837	H	0.734166	0.510288	0.451676
838	H	0.699162	0.467219	0.436727
839	N	0.724547	0.931958	0.628202
840	H	0.741225	0.927149	0.612618
841	N	0.779255	0.564077	0.373135
842	H	0.762396	0.568158	0.38942
843	C	0.964935	0.734965	0.35633
844	N	0.972959	0.762652	0.661836
845	C	0.504703	0.78221	0.641456
846	C	0.531223	0.772997	0.647389
847	N	0.523393	0.745781	0.34248
848	C	0.992172	0.726889	0.364169
849	H	0.508512	0.802538	0.62102
850	O	0.988	0.699925	0.391346
851	C	0.000223	0.711682	0.43587
852	H	0.995872	0.688762	0.45534
853	H	0.985516	0.723036	0.45153
854	H	0.028564	0.731075	0.436518
855	N	0.563745	0.791717	0.628016
856	H	0.568564	0.813222	0.612469
857	N	0.931671	0.71434	0.373062
858	H	0.9276	0.693407	0.389356
859	C	0.677323	0.869149	0.622242
860	C	0.640499	0.844441	0.621721
861	C	0.626554	0.807313	0.622116
862	C	0.651271	0.795204	0.621657
863	C	0.6884	0.818386	0.955481
864	C	0.700518	0.85522	0.621681
865	H	0.641761	0.768648	0.624292
866	H	0.727064	0.872252	0.624478
867	H	0.623453	0.853948	0.624405
868	C	0.689754	0.905848	0.628923
869	C	0.712677	0.805964	0.962128
870	C	0.589851	0.783028	0.628717
871	O	0.746974	0.830408	0.637566
872	O	0.665309	0.915686	0.637759
873	O	0.579997	0.748728	0.637457
874	C	0.821391	0.628319	0.70645
875	C	0.857219	0.655839	0.706596
876	C	0.867431	0.692231	0.706464
877	C	0.839903	0.700532	0.706567
878	C	0.80351	0.674356	0.039808
879	C	0.795208	0.638526	0.706593
880	H	0.846809	0.726523	0.703922
881	H	0.769213	0.619443	0.703956
882	H	0.876305	0.648934	0.703932
883	C	0.812637	0.592352	0.701594
884	C	0.776298	0.683105	0.034908
885	C	0.903393	0.719443	0.701547
886	O	0.743228	0.656746	0.690907
887	O	0.838991	0.585638	0.690917
888	O	0.910095	0.752504	0.690834
889	C	0.760769	0.729123	0.689708
890	N	0.733074	0.709456	0.995228
891	C	0.713505	0.721637	0.974864
892	C	0.72271	0.757369	0.980814
893	N	0.749936	0.776756	0.675885
894	C	0.768841	0.764433	0.697557
895	H	0.693175	0.705119	0.954431
896	O	0.795813	0.787228	0.724721
897	C	0.784073	0.787695	0.769252
898	H	0.806998	0.806266	0.788709
899	H	0.772727	0.761635	0.784912
900	H	0.764676	0.79664	0.769916
901	N	0.703989	0.771168	0.96143
902	H	0.682493	0.754483	0.945874
903	N	0.781404	0.716489	0.70642
904	H	0.802347	0.733354	0.722701
905	C	0.766619	0.530799	0.689777
906	N	0.786269	0.522765	0.995281
907	C	0.774082	0.991007	0.974934
908	C	0.738355	0.964481	0.980914
909	N	0.718981	0.972324	0.676001
910	C	0.731314	0.50356	0.697657
911	H	0.790592	0.987194	0.954484
912	O	0.70853	0.507741	0.724841
913	C	0.708098	0.495561	0.769378
914	H	0.689534	0.499917	0.788848
915	H	0.734166	0.510288	0.785011
916	H	0.699162	0.467219	0.770059
917	N	0.724547	0.931958	0.961533
918	H	0.741225	0.927149	0.945953
919	N	0.779255	0.564077	0.706467
920	H	0.762396	0.568158	0.722751
921	C	0.964935	0.734965	0.689661
922	N	0.972959	0.762652	0.995168
923	C	0.504703	0.78221	0.974788
924	C	0.531223	0.772997	0.980721
925	N	0.523393	0.745781	0.675812
926	C	0.992172	0.726889	0.697501
927	H	0.508512	0.802538	0.954355
928	O	0.988	0.699925	0.724681
929	C	0.000223	0.711682	0.769202
930	H	0.995872	0.688762	0.788672
931	H	0.985516	0.723036	0.784862
932	H	0.028564	0.731075	0.76985
933	N	0.563745	0.791717	0.961347
934	H	0.568564	0.813222	0.9458
935	N	0.931671	0.71434	0.706394
936	H	0.9276	0.693407	0.722691
