data_C432H288N72O144_2018-02-15_10:32:50
#******************************************
#
# CIF file created by Zeo++
# Zeo++ is an open source package to
# analyze microporous materials
#
#*******************************************

_cell_length_a		43.8736   
_cell_length_b		43.8737   
_cell_length_c		30.085   
_cell_angle_alpha		90   
_cell_angle_beta		90   
_cell_angle_gamma		120   

_symmetry_space_group_name_H-M		'P1'
_symmetry_Int_Tables_number		1
_symmetry_cell_setting		Monoclinic

loop_
_symmetry_equiv_pos_as_xyz
'+x,+y,+z'

loop_
_atom_site_label
_atom_site_type_symbol
_atom_site_fract_x
_atom_site_fract_y
_atom_site_fract_z
1	C	0.174919	0.36857	0.043333
2	C	0.139006	0.341996	0.043599
3	C	0.127878	0.305624	0.043409
4	C	0.154459	0.296291	0.043629
5	C	0.190832	0.321536	0.376723
6	C	0.200175	0.357456	0.043641
7	H	0.146964	0.270312	0.040761
8	H	0.226146	0.375929	0.040652
9	H	0.120522	0.349489	0.040711
10	C	0.184684	0.404461	0.037214
11	C	0.216966	0.31178	0.37061
12	C	0.091988	0.279487	0.037329
13	O	0.251028	0.337575	0.032469
14	O	0.158893	0.412728	0.032362
15	O	0.083718	0.245424	0.032526
16	C	0.320833	0.128605	0.953852
17	C	0.356751	0.155167	0.953586
18	C	0.367886	0.191541	0.953812
19	C	0.341313	0.200887	0.95356
20	C	0.304937	0.175653	0.287097
21	C	0.29559	0.139734	0.95356
22	H	0.348815	0.226868	0.956415
23	H	0.269607	0.121261	0.956418
24	H	0.375227	0.147668	0.956524
25	C	0.311059	0.092707	0.959935
26	C	0.278801	0.185415	0.293139
27	C	0.403776	0.21767	0.959925
28	O	0.244746	0.15963	0.964688
29	O	0.336843	0.08443	0.964764
30	O	0.412049	0.251731	0.964748
31	C	0.226727	0.233387	0.0358
32	C	0.244938	0.217724	0.01692
33	C	0.266008	0.232324	0.311632
34	C	0.269074	0.263824	0.294662
35	C	0.25083	0.279463	0.313512
36	C	0.229796	0.26489	0.018836
37	H	0.283571	0.274855	0.266513
38	O	0.243685	0.190452	0.040046
39	H	0.212234	0.222362	0.063955
40	O	0.25213	0.306779	0.290442
41	H	0.266055	0.20007	0.05634
42	H	0.229784	0.297189	0.274099
43	N	0.285129	0.219163	0.291843
44	H	0.304423	0.235213	0.272688
45	N	0.210669	0.278047	0.038622
46	H	0.191379	0.261991	0.05778
47	C	0.263071	0.492619	0.035816
48	C	0.278739	0.026502	0.01696
49	C	0.264156	0.032985	0.311663
50	C	0.232676	0.004552	0.294654
51	C	0.217032	0.470661	0.313479
52	C	0.231582	0.464189	0.018817
53	H	0.221659	0.008026	0.266495
54	O	0.305997	0.052514	0.040113
55	H	0.274081	0.489142	0.06398
56	O	0.18974	0.44465	0.290374
57	H	0.296362	0.065245	0.05642
58	H	0.199347	0.431904	0.274045
59	N	0.277321	0.065276	0.291896
60	H	0.261273	0.06852	0.27274
61	N	0.218418	0.431899	0.038589
62	H	0.234461	0.428659	0.057763
63	C	0.003843	0.269749	0.035866
64	C	0.469968	0.251549	0.016986
65	C	0.463491	0.230477	0.311699
66	C	0.491917	0.227402	0.294725
67	C	0.025801	0.245633	0.313576
68	C	0.032269	0.266667	0.0189
69	H	0.488447	0.212903	0.266576
70	O	0.443956	0.25282	0.040107
71	H	0.007316	0.284245	0.064019
72	O	0.051811	0.244323	0.290505
73	H	0.431208	0.23046	0.056422
74	H	0.064571	0.266667	0.274158
75	N	0.431207	0.211361	0.291911
76	H	0.427961	0.192069	0.27275
77	N	0.064555	0.28579	0.038683
78	H	0.067799	0.305079	0.057849
79	C	0.174919	0.36857	0.376667
80	C	0.139006	0.341996	0.376933
81	C	0.127878	0.305624	0.376743
82	C	0.154459	0.296291	0.376962
83	C	0.190832	0.321536	0.710056
84	C	0.200175	0.357456	0.376972
85	H	0.146964	0.270312	0.374094
86	H	0.226146	0.375929	0.373984
87	H	0.120522	0.349489	0.374044
88	C	0.184684	0.404461	0.370547
89	C	0.216966	0.31178	0.703946
90	C	0.091988	0.279487	0.370664
91	O	0.251028	0.337575	0.365801
92	O	0.158893	0.412728	0.365694
93	O	0.083718	0.245424	0.365861
94	C	0.320833	0.128605	0.287188
95	C	0.356751	0.155167	0.286921
96	C	0.367886	0.191541	0.287145
97	C	0.341313	0.200887	0.286893
98	C	0.304937	0.175653	0.62043
99	C	0.29559	0.139734	0.286893
100	H	0.348815	0.226868	0.289749
101	H	0.269607	0.121261	0.289753
102	H	0.375227	0.147668	0.28986
103	C	0.311059	0.092707	0.293268
104	C	0.278801	0.185415	0.626473
105	C	0.403776	0.21767	0.293258
106	O	0.244746	0.15963	0.298023
107	O	0.336843	0.08443	0.298099
108	O	0.412049	0.251731	0.298082
109	C	0.226727	0.233387	0.369131
110	C	0.244938	0.217724	0.350251
111	C	0.266008	0.232324	0.644967
112	C	0.269074	0.263824	0.627995
113	C	0.25083	0.279463	0.646845
114	C	0.229796	0.26489	0.352169
115	H	0.283571	0.274855	0.599845
116	O	0.243685	0.190452	0.373379
117	H	0.212234	0.222362	0.397288
118	O	0.25213	0.306779	0.623773
119	H	0.266055	0.20007	0.389673
120	H	0.229784	0.297189	0.607433
121	N	0.285129	0.219163	0.625176
122	H	0.304423	0.235213	0.60602
123	N	0.210669	0.278047	0.371957
124	H	0.191379	0.261991	0.391112
125	C	0.263071	0.492619	0.369148
126	C	0.278739	0.026502	0.350291
127	C	0.264156	0.032985	0.644997
128	C	0.232676	0.004552	0.627985
129	C	0.217032	0.470661	0.646812
130	C	0.231582	0.464189	0.352149
131	H	0.221659	0.008026	0.599828
132	O	0.305997	0.052514	0.373446
133	H	0.274081	0.489142	0.397311
134	O	0.18974	0.44465	0.623707
135	H	0.296362	0.065245	0.389753
136	H	0.199347	0.431904	0.607377
137	N	0.277321	0.065276	0.625229
138	H	0.261273	0.06852	0.606074
139	N	0.218418	0.431899	0.371923
140	H	0.234461	0.428659	0.391096
141	C	0.003843	0.269749	0.369198
142	C	0.469968	0.251549	0.350318
143	C	0.463491	0.230477	0.645033
144	C	0.491917	0.227402	0.628058
145	C	0.025801	0.245633	0.646908
146	C	0.032269	0.266667	0.352232
147	H	0.488447	0.212903	0.599908
148	O	0.443956	0.25282	0.373439
149	H	0.007316	0.284245	0.397351
150	O	0.051811	0.244323	0.623837
151	H	0.431208	0.23046	0.389756
152	H	0.064571	0.266667	0.60749
153	N	0.431207	0.211361	0.625246
154	H	0.427961	0.192069	0.606084
155	N	0.064555	0.28579	0.372016
156	H	0.067799	0.305079	0.391182
157	C	0.174919	0.36857	0.709999
158	C	0.139006	0.341996	0.710265
159	C	0.127878	0.305624	0.710076
160	C	0.154459	0.296291	0.710295
161	C	0.190832	0.321536	0.04339
162	C	0.200175	0.357456	0.710305
163	H	0.146964	0.270312	0.707427
164	H	0.226146	0.375929	0.707317
165	H	0.120522	0.349489	0.707377
166	C	0.184684	0.404461	0.70388
167	C	0.216966	0.31178	0.037279
168	C	0.091988	0.279487	0.703996
169	O	0.251028	0.337575	0.699133
170	O	0.158893	0.412728	0.699027
171	O	0.083718	0.245424	0.699193
172	C	0.320833	0.128605	0.620519
173	C	0.356751	0.155167	0.620253
174	C	0.367886	0.191541	0.620479
175	C	0.341313	0.200887	0.620227
176	C	0.304937	0.175653	0.953762
177	C	0.29559	0.139734	0.620227
178	H	0.348815	0.226868	0.623082
179	H	0.269607	0.121261	0.623085
180	H	0.375227	0.147668	0.623192
181	C	0.311059	0.092707	0.626602
182	C	0.278801	0.185415	0.959805
183	C	0.403776	0.21767	0.626589
184	O	0.244746	0.15963	0.631355
185	O	0.336843	0.08443	0.631432
186	O	0.412049	0.251731	0.631415
187	C	0.226727	0.233387	0.702467
188	C	0.244938	0.217724	0.683587
189	C	0.266008	0.232324	0.978299
190	C	0.269074	0.263824	0.961328
191	C	0.25083	0.279463	0.980178
192	C	0.229796	0.26489	0.685502
193	H	0.283571	0.274855	0.933181
194	O	0.243685	0.190452	0.706712
195	H	0.212234	0.222362	0.730621
196	O	0.25213	0.306779	0.957106
197	H	0.266055	0.20007	0.723006
198	H	0.229784	0.297189	0.940766
199	N	0.285129	0.219163	0.958509
200	H	0.304423	0.235213	0.939353
201	N	0.210669	0.278047	0.705289
202	H	0.191379	0.261991	0.724445
203	C	0.263071	0.492619	0.702481
204	C	0.278739	0.026502	0.683627
205	C	0.264156	0.032985	0.978329
206	C	0.232676	0.004552	0.961318
207	C	0.217032	0.470661	0.980144
208	C	0.231582	0.464189	0.685482
209	H	0.221659	0.008026	0.933161
210	O	0.305997	0.052514	0.706778
211	H	0.274081	0.489142	0.730644
212	O	0.18974	0.44465	0.95704
213	H	0.296362	0.065245	0.723086
214	H	0.199347	0.431904	0.940713
215	N	0.277321	0.065276	0.958562
216	H	0.261273	0.06852	0.939406
217	N	0.218418	0.431899	0.705256
218	H	0.234461	0.428659	0.724428
219	C	0.003843	0.269749	0.70253
220	C	0.469968	0.251549	0.683651
221	C	0.463491	0.230477	0.978366
222	C	0.491917	0.227402	0.961391
223	C	0.025801	0.245633	0.980241
224	C	0.032269	0.266667	0.685565
225	H	0.488447	0.212903	0.93324
226	O	0.443956	0.25282	0.706772
227	H	0.007316	0.284245	0.730684
228	O	0.051811	0.244323	0.957169
229	H	0.431208	0.23046	0.723089
230	H	0.064571	0.266667	0.940822
231	N	0.431207	0.211361	0.958579
232	H	0.427961	0.192069	0.939416
233	N	0.064555	0.28579	0.705349
234	H	0.067799	0.305079	0.724515
235	C	0.174919	0.868569	0.043333
236	C	0.139005	0.841995	0.043599
237	C	0.127879	0.805625	0.043409
238	C	0.15446	0.796292	0.043629
239	C	0.190832	0.821537	0.376723
240	C	0.200173	0.857454	0.043641
241	H	0.146965	0.770313	0.040761
242	H	0.226145	0.875928	0.040652
243	H	0.120521	0.84949	0.040711
244	C	0.184684	0.90446	0.037214
245	C	0.216967	0.811781	0.37061
246	C	0.091987	0.779485	0.037329
247	O	0.251026	0.837573	0.032469
248	O	0.158893	0.912726	0.032362
249	O	0.083718	0.745423	0.032526
250	C	0.320832	0.628605	0.953855
251	C	0.35675	0.655166	0.953586
252	C	0.367885	0.691541	0.953812
253	C	0.341313	0.700887	0.95356
254	C	0.304936	0.675652	0.287097
255	C	0.295589	0.639733	0.95356
256	H	0.348816	0.726869	0.956415
257	H	0.269606	0.621259	0.956418
258	H	0.375227	0.647668	0.956524
259	C	0.311058	0.592706	0.959935
260	C	0.2788	0.685414	0.293139
261	C	0.403776	0.71767	0.959925
262	O	0.244745	0.659629	0.964688
263	O	0.336843	0.584429	0.964764
264	O	0.41205	0.751732	0.964748
265	C	0.226727	0.733388	0.0358
266	C	0.244937	0.717723	0.01692
267	C	0.266008	0.732325	0.311632
268	C	0.269073	0.763823	0.294662
269	C	0.25083	0.779464	0.313512
270	C	0.229797	0.764891	0.018836
271	H	0.283571	0.774856	0.266513
272	O	0.243684	0.690451	0.040046
273	H	0.212233	0.72236	0.063955
274	O	0.252129	0.806778	0.290442
275	H	0.266055	0.700071	0.05634
276	H	0.229784	0.79719	0.274099
277	N	0.285129	0.719163	0.291843
278	H	0.304422	0.735212	0.272688
279	N	0.210668	0.778045	0.038622
280	H	0.191379	0.761991	0.05778
281	C	0.263072	0.99262	0.035816
282	C	0.278738	0.526501	0.01696
283	C	0.264156	0.532984	0.311663
284	C	0.232675	0.504552	0.294654
285	C	0.217032	0.970659	0.313479
286	C	0.231581	0.964187	0.018817
287	H	0.221659	0.508026	0.266495
288	O	0.305996	0.552515	0.040113
289	H	0.274081	0.989143	0.06398
290	O	0.18974	0.944648	0.290373
291	H	0.296362	0.565245	0.05642
292	H	0.199347	0.931902	0.274045
293	N	0.277321	0.565277	0.291896
294	H	0.261272	0.568519	0.27274
295	N	0.218418	0.9319	0.038589
296	H	0.234463	0.92866	0.057763
297	C	0.003844	0.76975	0.035866
298	C	0.469968	0.751548	0.016986
299	C	0.46349	0.730477	0.311699
300	C	0.491917	0.7274	0.294725
301	C	0.025801	0.745631	0.313576
302	C	0.032267	0.766665	0.0189
303	H	0.488446	0.712901	0.266576
304	O	0.443956	0.752819	0.040107
305	H	0.007318	0.784246	0.064019
306	O	0.05181	0.744323	0.290505
307	H	0.431206	0.730459	0.056422
308	H	0.064569	0.766665	0.274158
309	N	0.431206	0.711362	0.291911
310	H	0.427961	0.69207	0.27275
311	N	0.064553	0.785788	0.038683
312	H	0.067798	0.805077	0.057849
313	C	0.174919	0.868569	0.376667
314	C	0.139005	0.841995	0.376933
315	C	0.127879	0.805625	0.376743
316	C	0.15446	0.796292	0.376962
317	C	0.190832	0.821537	0.710056
318	C	0.200173	0.857454	0.376972
319	H	0.146965	0.770313	0.374094
320	H	0.226145	0.875928	0.373984
321	H	0.120521	0.84949	0.374044
322	C	0.184684	0.90446	0.370547
323	C	0.216967	0.811781	0.703946
324	C	0.091987	0.779485	0.370664
325	O	0.251026	0.837573	0.365801
326	O	0.158893	0.912726	0.365694
327	O	0.083718	0.745423	0.365861
328	C	0.320832	0.628605	0.287188
329	C	0.35675	0.655166	0.286921
330	C	0.367885	0.691541	0.287145
331	C	0.341313	0.700887	0.286893
332	C	0.304936	0.675652	0.62043
333	C	0.295589	0.639733	0.286893
334	H	0.348816	0.726869	0.289749
335	H	0.269606	0.621259	0.289753
336	H	0.375227	0.647668	0.28986
337	C	0.311058	0.592706	0.293268
338	C	0.2788	0.685414	0.626473
339	C	0.403776	0.71767	0.293258
340	O	0.244745	0.659629	0.298023
341	O	0.336843	0.584429	0.298099
342	O	0.41205	0.751732	0.298082
343	C	0.226727	0.733388	0.369131
344	C	0.244937	0.717723	0.350251
345	C	0.266008	0.732325	0.644967
346	C	0.269073	0.763823	0.627995
347	C	0.25083	0.779464	0.646845
348	C	0.229797	0.764891	0.352169
349	H	0.283571	0.774856	0.599845
350	O	0.243684	0.690451	0.373379
351	H	0.212233	0.72236	0.397288
352	O	0.252129	0.806778	0.623773
353	H	0.266055	0.700071	0.389673
354	H	0.229784	0.79719	0.607433
355	N	0.285129	0.719163	0.625176
356	H	0.304422	0.735212	0.60602
357	N	0.210668	0.778045	0.371957
358	H	0.191379	0.761991	0.391112
359	C	0.263072	0.99262	0.369148
360	C	0.278738	0.526501	0.350295
361	C	0.264156	0.532984	0.644997
362	C	0.232675	0.504552	0.627985
363	C	0.217032	0.970659	0.646812
364	C	0.231581	0.964187	0.352149
365	H	0.221659	0.508026	0.599828
366	O	0.305996	0.552515	0.373446
367	H	0.274081	0.989143	0.397311
368	O	0.18974	0.944648	0.623707
369	H	0.296362	0.565245	0.389753
370	H	0.199347	0.931902	0.607377
371	N	0.277321	0.565277	0.625229
372	H	0.261272	0.568519	0.606074
373	N	0.218418	0.9319	0.371923
374	H	0.234463	0.92866	0.391096
375	C	0.003844	0.76975	0.369198
376	C	0.469968	0.751548	0.350318
377	C	0.46349	0.730477	0.645033
378	C	0.491917	0.7274	0.628058
379	C	0.025801	0.745631	0.646908
380	C	0.032267	0.766665	0.352232
381	H	0.488446	0.712901	0.599908
382	O	0.443956	0.752819	0.373439
383	H	0.007318	0.784246	0.397351
384	O	0.05181	0.744323	0.623837
385	H	0.431206	0.730459	0.389756
386	H	0.064569	0.766665	0.60749
387	N	0.431206	0.711362	0.625246
388	H	0.427961	0.69207	0.606084
389	N	0.064553	0.785788	0.372016
390	H	0.067798	0.805077	0.391182
391	C	0.174919	0.868569	0.709999
392	C	0.139005	0.841995	0.710265
393	C	0.127879	0.805625	0.710076
394	C	0.15446	0.796292	0.710295
395	C	0.190832	0.821537	0.04339
396	C	0.200173	0.857454	0.710305
397	H	0.146965	0.770313	0.707427
398	H	0.226145	0.875928	0.707317
399	H	0.120521	0.84949	0.707377
400	C	0.184684	0.90446	0.70388
401	C	0.216967	0.811781	0.037279
402	C	0.091987	0.779485	0.703996
403	O	0.251026	0.837573	0.699133
404	O	0.158893	0.912726	0.699027
405	O	0.083718	0.745423	0.699193
406	C	0.320832	0.628605	0.620519
407	C	0.35675	0.655166	0.620253
408	C	0.367885	0.691541	0.620479
409	C	0.341313	0.700887	0.620227
410	C	0.304936	0.675652	0.953762
411	C	0.295589	0.639733	0.620227
412	H	0.348816	0.726869	0.623082
413	H	0.269606	0.621259	0.623085
414	H	0.375227	0.647668	0.623192
415	C	0.311058	0.592706	0.626602
416	C	0.2788	0.685414	0.959805
417	C	0.403776	0.71767	0.626589
418	O	0.244745	0.659629	0.631355
419	O	0.336843	0.584429	0.631432
420	O	0.41205	0.751732	0.631415
421	C	0.226727	0.733388	0.702467
422	C	0.244937	0.717723	0.683587
423	C	0.266008	0.732325	0.978299
424	C	0.269073	0.763823	0.961328
425	C	0.25083	0.779464	0.980178
426	C	0.229797	0.764891	0.685502
427	H	0.283571	0.774856	0.933181
428	O	0.243684	0.690451	0.706712
429	H	0.212233	0.72236	0.730621
430	O	0.252129	0.806778	0.957106
431	H	0.266055	0.700071	0.723006
432	H	0.229784	0.79719	0.940766
433	N	0.285129	0.719163	0.958509
434	H	0.304422	0.735212	0.939353
435	N	0.210668	0.778045	0.705289
436	H	0.191379	0.761991	0.724445
437	C	0.263072	0.99262	0.702481
438	C	0.278738	0.526501	0.683627
439	C	0.264156	0.532984	0.978329
440	C	0.232675	0.504552	0.961318
441	C	0.217032	0.970659	0.980144
442	C	0.231581	0.964187	0.685482
443	H	0.221659	0.508026	0.933161
444	O	0.305996	0.552515	0.706778
445	H	0.274081	0.989143	0.730644
446	O	0.18974	0.944648	0.95704
447	H	0.296362	0.565245	0.723086
448	H	0.199347	0.931902	0.940713
449	N	0.277321	0.565277	0.958562
450	H	0.261272	0.568519	0.939406
451	N	0.218418	0.9319	0.705256
452	H	0.234463	0.92866	0.724428
453	C	0.003844	0.76975	0.70253
454	C	0.469968	0.751548	0.683651
455	C	0.46349	0.730477	0.978366
456	C	0.491917	0.7274	0.961391
457	C	0.025801	0.745631	0.980241
458	C	0.032267	0.766665	0.685565
459	H	0.488446	0.712901	0.93324
460	O	0.443956	0.752819	0.706772
461	H	0.007318	0.784246	0.730684
462	O	0.05181	0.744323	0.957169
463	H	0.431206	0.730459	0.723089
464	H	0.064569	0.766665	0.940822
465	N	0.431206	0.711362	0.958579
466	H	0.427961	0.69207	0.939416
467	N	0.064553	0.785788	0.705349
468	H	0.067798	0.805077	0.724515
469	C	0.67492	0.36857	0.043333
470	C	0.639006	0.341996	0.043599
471	C	0.627879	0.305624	0.043409
472	C	0.654459	0.296291	0.043629
473	C	0.690832	0.321536	0.376723
474	C	0.700176	0.357456	0.043641
475	H	0.646965	0.270312	0.040761
476	H	0.726147	0.375929	0.040652
477	H	0.620523	0.349489	0.040711
478	C	0.684685	0.404461	0.037214
479	C	0.716968	0.31178	0.37061
480	C	0.591988	0.279487	0.037329
481	O	0.751028	0.337575	0.032469
482	O	0.658894	0.412728	0.032362
483	O	0.583718	0.245424	0.032526
484	C	0.820833	0.128605	0.953852
485	C	0.856751	0.155167	0.953586
486	C	0.867886	0.191541	0.953812
487	C	0.841315	0.200887	0.95356
488	C	0.804937	0.175653	0.287097
489	C	0.795591	0.139734	0.95356
490	H	0.848817	0.226868	0.956415
491	H	0.769608	0.121261	0.956418
492	H	0.875227	0.147668	0.956524
493	C	0.811059	0.092707	0.959935
494	C	0.778801	0.185415	0.293139
495	C	0.903776	0.21767	0.959925
496	O	0.744746	0.15963	0.964688
497	O	0.836843	0.08443	0.964764
498	O	0.912049	0.251731	0.964748
499	C	0.726728	0.233387	0.0358
500	C	0.74494	0.217724	0.01692
501	C	0.766008	0.232324	0.311632
502	C	0.769074	0.263824	0.294662
503	C	0.75083	0.279463	0.313512
504	C	0.729798	0.26489	0.018836
505	H	0.783572	0.274855	0.266513
506	O	0.743684	0.190452	0.040046
507	H	0.712235	0.222362	0.063955
508	O	0.75213	0.306779	0.290442
509	H	0.766055	0.20007	0.05634
510	H	0.729784	0.297189	0.274099
511	N	0.785129	0.219163	0.291843
512	H	0.804423	0.235213	0.272688
513	N	0.71067	0.278047	0.038622
514	H	0.69138	0.261991	0.05778
515	C	0.763071	0.492619	0.035816
516	C	0.778739	0.026502	0.01696
517	C	0.764158	0.032985	0.311663
518	C	0.732676	0.004552	0.294654
519	C	0.717032	0.470661	0.313479
520	C	0.731582	0.464189	0.018817
521	H	0.721659	0.008026	0.266495
522	O	0.805997	0.052514	0.040113
523	H	0.774081	0.489142	0.06398
524	O	0.689741	0.44465	0.290374
525	H	0.796362	0.065245	0.05642
526	H	0.699347	0.431904	0.274045
527	N	0.777321	0.065276	0.291896
528	H	0.761274	0.06852	0.27274
529	N	0.718418	0.431899	0.038589
530	H	0.734462	0.428659	0.057763
531	C	0.503843	0.269749	0.035866
532	C	0.969968	0.251549	0.016986
533	C	0.963491	0.230477	0.311699
534	C	0.991919	0.227402	0.294725
535	C	0.525802	0.245633	0.313576
536	C	0.53227	0.266667	0.0189
537	H	0.988447	0.212903	0.266576
538	O	0.943956	0.25282	0.040107
539	H	0.507317	0.284245	0.064019
540	O	0.551812	0.244323	0.290505
541	H	0.931208	0.23046	0.056422
542	H	0.56457	0.266667	0.274158
543	N	0.931207	0.211361	0.291911
544	H	0.927961	0.192069	0.27275
545	N	0.564554	0.28579	0.038683
546	H	0.567801	0.305079	0.057849
547	C	0.67492	0.36857	0.376667
548	C	0.639006	0.341996	0.376933
549	C	0.627879	0.305624	0.376743
550	C	0.654459	0.296291	0.376962
551	C	0.690832	0.321536	0.710056
552	C	0.700176	0.357456	0.376972
553	H	0.646965	0.270312	0.374094
554	H	0.726147	0.375929	0.373984
555	H	0.620523	0.349489	0.374044
556	C	0.684685	0.404461	0.370547
557	C	0.716968	0.31178	0.703946
558	C	0.591988	0.279487	0.370664
559	O	0.751028	0.337575	0.365801
560	O	0.658894	0.412728	0.365694
561	O	0.583718	0.245424	0.365861
562	C	0.820833	0.128605	0.287188
563	C	0.856751	0.155167	0.286921
564	C	0.867886	0.191541	0.287145
565	C	0.841315	0.200887	0.286893
566	C	0.804937	0.175653	0.62043
567	C	0.795591	0.139734	0.286893
568	H	0.848817	0.226868	0.289749
569	H	0.769608	0.121261	0.289753
570	H	0.875227	0.147668	0.28986
571	C	0.811059	0.092707	0.293268
572	C	0.778801	0.185415	0.626473
573	C	0.903776	0.21767	0.293258
574	O	0.744746	0.15963	0.298023
575	O	0.836843	0.08443	0.298099
576	O	0.912049	0.251731	0.298082
577	C	0.726728	0.233387	0.369131
578	C	0.74494	0.217724	0.350251
579	C	0.766008	0.232324	0.644967
580	C	0.769074	0.263824	0.627995
581	C	0.75083	0.279463	0.646845
582	C	0.729798	0.26489	0.352169
583	H	0.783572	0.274855	0.599845
584	O	0.743684	0.190452	0.373379
585	H	0.712235	0.222362	0.397288
586	O	0.75213	0.306779	0.623773
587	H	0.766055	0.20007	0.389673
588	H	0.729784	0.297189	0.607433
589	N	0.785129	0.219163	0.625176
590	H	0.804423	0.235213	0.60602
591	N	0.71067	0.278047	0.371957
592	H	0.69138	0.261991	0.391112
593	C	0.763071	0.492619	0.369148
594	C	0.778739	0.026502	0.350291
595	C	0.764158	0.032985	0.644997
596	C	0.732676	0.004552	0.627985
597	C	0.717032	0.470661	0.646812
598	C	0.731582	0.464189	0.352149
599	H	0.721659	0.008026	0.599828
600	O	0.805997	0.052514	0.373446
601	H	0.774081	0.489142	0.397311
602	O	0.689741	0.44465	0.623707
603	H	0.796362	0.065245	0.389753
604	H	0.699347	0.431904	0.607377
605	N	0.777321	0.065276	0.625229
606	H	0.761274	0.06852	0.606074
607	N	0.718418	0.431899	0.371923
608	H	0.734462	0.428659	0.391096
609	C	0.503843	0.269749	0.369198
610	C	0.969968	0.251549	0.350318
611	C	0.963491	0.230477	0.645033
612	C	0.991919	0.227402	0.628058
613	C	0.525802	0.245633	0.646908
614	C	0.53227	0.266667	0.352232
615	H	0.988447	0.212903	0.599908
616	O	0.943956	0.25282	0.373439
617	H	0.507317	0.284245	0.397351
618	O	0.551812	0.244323	0.623837
619	H	0.931208	0.23046	0.389756
620	H	0.56457	0.266667	0.60749
621	N	0.931207	0.211361	0.625246
622	H	0.927961	0.192069	0.606084
623	N	0.564554	0.28579	0.372016
624	H	0.567801	0.305079	0.391182
625	C	0.67492	0.36857	0.709999
626	C	0.639006	0.341996	0.710265
627	C	0.627879	0.305624	0.710076
628	C	0.654459	0.296291	0.710295
629	C	0.690832	0.321536	0.04339
630	C	0.700176	0.357456	0.710305
631	H	0.646965	0.270312	0.707427
632	H	0.726147	0.375929	0.707317
633	H	0.620523	0.349489	0.707377
634	C	0.684685	0.404461	0.70388
635	C	0.716968	0.31178	0.037279
636	C	0.591988	0.279487	0.703996
637	O	0.751028	0.337575	0.699133
638	O	0.658894	0.412728	0.699027
639	O	0.583718	0.245424	0.699193
640	C	0.820833	0.128605	0.620519
641	C	0.856751	0.155167	0.620253
642	C	0.867886	0.191541	0.620479
643	C	0.841315	0.200887	0.620227
644	C	0.804937	0.175653	0.953762
645	C	0.795591	0.139734	0.620227
646	H	0.848817	0.226868	0.623082
647	H	0.769608	0.121261	0.623085
648	H	0.875227	0.147668	0.623192
649	C	0.811059	0.092707	0.626602
650	C	0.778801	0.185415	0.959805
651	C	0.903776	0.21767	0.626589
652	O	0.744746	0.15963	0.631355
653	O	0.836843	0.08443	0.631432
654	O	0.912049	0.251731	0.631415
655	C	0.726728	0.233387	0.702467
656	C	0.74494	0.217724	0.683587
657	C	0.766008	0.232324	0.978299
658	C	0.769074	0.263824	0.961328
659	C	0.75083	0.279463	0.980178
660	C	0.729798	0.26489	0.685502
661	H	0.783572	0.274855	0.933181
662	O	0.743684	0.190452	0.706712
663	H	0.712235	0.222362	0.730621
664	O	0.75213	0.306779	0.957106
665	H	0.766055	0.20007	0.723006
666	H	0.729784	0.297189	0.940766
667	N	0.785129	0.219163	0.958509
668	H	0.804423	0.235213	0.939353
669	N	0.71067	0.278047	0.705289
670	H	0.69138	0.261991	0.724445
671	C	0.763071	0.492619	0.702481
672	C	0.778739	0.026502	0.683627
673	C	0.764158	0.032985	0.978329
674	C	0.732676	0.004552	0.961318
675	C	0.717032	0.470661	0.980144
676	C	0.731582	0.464189	0.685482
677	H	0.721659	0.008026	0.933161
678	O	0.805997	0.052514	0.706778
679	H	0.774081	0.489142	0.730644
680	O	0.689741	0.44465	0.95704
681	H	0.796362	0.065245	0.723086
682	H	0.699347	0.431904	0.940713
683	N	0.777321	0.065276	0.958562
684	H	0.761274	0.06852	0.939406
685	N	0.718418	0.431899	0.705256
686	H	0.734462	0.428659	0.724428
687	C	0.503843	0.269749	0.70253
688	C	0.969968	0.251549	0.683651
689	C	0.963491	0.230477	0.978366
690	C	0.991919	0.227402	0.961391
691	C	0.525802	0.245633	0.980241
692	C	0.53227	0.266667	0.685565
693	H	0.988447	0.212903	0.93324
694	O	0.943956	0.25282	0.706772
695	H	0.507317	0.284245	0.730684
696	O	0.551812	0.244323	0.957169
697	H	0.931208	0.23046	0.723089
698	H	0.56457	0.266667	0.940822
699	N	0.931207	0.211361	0.958579
700	H	0.927961	0.192069	0.939416
701	N	0.564554	0.28579	0.705349
702	H	0.567801	0.305079	0.724515
703	C	0.674919	0.868569	0.043333
704	C	0.639005	0.841995	0.043599
705	C	0.627879	0.805625	0.043409
706	C	0.65446	0.796292	0.043629
707	C	0.690832	0.821537	0.376723
708	C	0.700175	0.857454	0.043641
709	H	0.646965	0.770313	0.040761
710	H	0.726146	0.875928	0.040652
711	H	0.620523	0.84949	0.040711
712	C	0.684684	0.90446	0.037214
713	C	0.716968	0.811781	0.37061
714	C	0.591987	0.779485	0.037329
715	O	0.751027	0.837573	0.032469
716	O	0.658893	0.912726	0.032362
717	O	0.583717	0.745423	0.032526
718	C	0.820833	0.628605	0.953855
719	C	0.856751	0.655166	0.953586
720	C	0.867886	0.691541	0.953812
721	C	0.841313	0.700887	0.95356
722	C	0.804936	0.675652	0.287097
723	C	0.79559	0.639733	0.95356
724	H	0.848815	0.726869	0.956415
725	H	0.769607	0.621259	0.956418
726	H	0.875227	0.647668	0.956524
727	C	0.811059	0.592706	0.959935
728	C	0.778801	0.685414	0.293139
729	C	0.903776	0.71767	0.959925
730	O	0.744745	0.659629	0.964688
731	O	0.836843	0.584429	0.964764
732	O	0.912049	0.751732	0.964748
733	C	0.726728	0.733388	0.0358
734	C	0.744939	0.717723	0.01692
735	C	0.766009	0.732325	0.311632
736	C	0.769074	0.763823	0.294662
737	C	0.750831	0.779464	0.313512
738	C	0.729798	0.764891	0.018836
739	H	0.78357	0.774856	0.266513
740	O	0.743684	0.690451	0.040046
741	H	0.712234	0.72236	0.063955
742	O	0.752129	0.806778	0.290442
743	H	0.766056	0.700071	0.05634
744	H	0.729785	0.79719	0.274099
745	N	0.785129	0.719163	0.291843
746	H	0.804422	0.735212	0.272688
747	N	0.710669	0.778045	0.038622
748	H	0.69138	0.761991	0.05778
749	C	0.763072	0.99262	0.035816
750	C	0.778738	0.526501	0.01696
751	C	0.764158	0.532984	0.311663
752	C	0.732676	0.504552	0.294654
753	C	0.717032	0.970659	0.313479
754	C	0.731581	0.964187	0.018817
755	H	0.721658	0.508026	0.266495
756	O	0.805997	0.552515	0.040113
757	H	0.774081	0.989143	0.06398
758	O	0.689739	0.944648	0.290373
759	H	0.796362	0.565245	0.05642
760	H	0.699347	0.931902	0.274045
761	N	0.777321	0.565277	0.291896
762	H	0.761273	0.568519	0.27274
763	N	0.718418	0.9319	0.038589
764	H	0.734463	0.92866	0.057763
765	C	0.503843	0.76975	0.035866
766	C	0.969967	0.751548	0.016986
767	C	0.963491	0.730477	0.311699
768	C	0.991918	0.7274	0.294725
769	C	0.525801	0.745631	0.313576
770	C	0.532269	0.766665	0.0189
771	H	0.988446	0.712901	0.266576
772	O	0.943956	0.752819	0.040107
773	H	0.507317	0.784246	0.064019
774	O	0.551811	0.744323	0.290505
775	H	0.931207	0.730459	0.056422
776	H	0.56457	0.766665	0.274158
777	N	0.931207	0.711362	0.291911
778	H	0.927961	0.69207	0.27275
779	N	0.564554	0.785788	0.038683
780	H	0.567798	0.805077	0.057849
781	C	0.674919	0.868569	0.376667
782	C	0.639005	0.841995	0.376933
783	C	0.627879	0.805625	0.376743
784	C	0.65446	0.796292	0.376962
785	C	0.690832	0.821537	0.710056
786	C	0.700175	0.857454	0.376972
787	H	0.646965	0.770313	0.374094
788	H	0.726146	0.875928	0.373984
789	H	0.620523	0.84949	0.374044
790	C	0.684684	0.90446	0.370547
791	C	0.716968	0.811781	0.703946
792	C	0.591987	0.779485	0.370664
793	O	0.751027	0.837573	0.365801
794	O	0.658893	0.912726	0.365694
795	O	0.583717	0.745423	0.365861
796	C	0.820833	0.628605	0.287188
797	C	0.856751	0.655166	0.286921
798	C	0.867886	0.691541	0.287145
799	C	0.841313	0.700887	0.286893
800	C	0.804936	0.675652	0.62043
801	C	0.79559	0.639733	0.286893
802	H	0.848815	0.726869	0.289749
803	H	0.769607	0.621259	0.289753
804	H	0.875227	0.647668	0.28986
805	C	0.811059	0.592706	0.293268
806	C	0.778801	0.685414	0.626473
807	C	0.903776	0.71767	0.293258
808	O	0.744745	0.659629	0.298023
809	O	0.836843	0.584429	0.298099
810	O	0.912049	0.751732	0.298082
811	C	0.726728	0.733388	0.369131
812	C	0.744939	0.717723	0.350251
813	C	0.766009	0.732325	0.644967
814	C	0.769074	0.763823	0.627995
815	C	0.750831	0.779464	0.646845
816	C	0.729798	0.764891	0.352169
817	H	0.78357	0.774856	0.599845
818	O	0.743684	0.690451	0.373379
819	H	0.712234	0.72236	0.397288
820	O	0.752129	0.806778	0.623773
821	H	0.766056	0.700071	0.389673
822	H	0.729785	0.79719	0.607433
823	N	0.785129	0.719163	0.625176
824	H	0.804422	0.735212	0.60602
825	N	0.710669	0.778045	0.371957
826	H	0.69138	0.761991	0.391112
827	C	0.763072	0.99262	0.369148
828	C	0.778738	0.526501	0.350295
829	C	0.764158	0.532984	0.644997
830	C	0.732676	0.504552	0.627985
831	C	0.717032	0.970659	0.646812
832	C	0.731581	0.964187	0.352149
833	H	0.721658	0.508026	0.599828
834	O	0.805997	0.552515	0.373446
835	H	0.774081	0.989143	0.397311
836	O	0.689739	0.944648	0.623707
837	H	0.796362	0.565245	0.389753
838	H	0.699347	0.931902	0.607377
839	N	0.777321	0.565277	0.625229
840	H	0.761273	0.568519	0.606074
841	N	0.718418	0.9319	0.371923
842	H	0.734463	0.92866	0.391096
843	C	0.503843	0.76975	0.369198
844	C	0.969967	0.751548	0.350318
845	C	0.963491	0.730477	0.645033
846	C	0.991918	0.7274	0.628058
847	C	0.525801	0.745631	0.646908
848	C	0.532269	0.766665	0.352232
849	H	0.988446	0.712901	0.599908
850	O	0.943956	0.752819	0.373439
851	H	0.507317	0.784246	0.397351
852	O	0.551811	0.744323	0.623837
853	H	0.931207	0.730459	0.389756
854	H	0.56457	0.766665	0.60749
855	N	0.931207	0.711362	0.625246
856	H	0.927961	0.69207	0.606084
857	N	0.564554	0.785788	0.372016
858	H	0.567798	0.805077	0.391182
859	C	0.674919	0.868569	0.709999
860	C	0.639005	0.841995	0.710265
861	C	0.627879	0.805625	0.710076
862	C	0.65446	0.796292	0.710295
863	C	0.690832	0.821537	0.04339
864	C	0.700175	0.857454	0.710305
865	H	0.646965	0.770313	0.707427
866	H	0.726146	0.875928	0.707317
867	H	0.620523	0.84949	0.707377
868	C	0.684684	0.90446	0.70388
869	C	0.716968	0.811781	0.037279
870	C	0.591987	0.779485	0.703996
871	O	0.751027	0.837573	0.699133
872	O	0.658893	0.912726	0.699027
873	O	0.583717	0.745423	0.699193
874	C	0.820833	0.628605	0.620519
875	C	0.856751	0.655166	0.620253
876	C	0.867886	0.691541	0.620479
877	C	0.841313	0.700887	0.620227
878	C	0.804936	0.675652	0.953762
879	C	0.79559	0.639733	0.620227
880	H	0.848815	0.726869	0.623082
881	H	0.769607	0.621259	0.623085
882	H	0.875227	0.647668	0.623192
883	C	0.811059	0.592706	0.626602
884	C	0.778801	0.685414	0.959805
885	C	0.903776	0.71767	0.626589
886	O	0.744745	0.659629	0.631355
887	O	0.836843	0.584429	0.631432
888	O	0.912049	0.751732	0.631415
889	C	0.726728	0.733388	0.702467
890	C	0.744939	0.717723	0.683587
891	C	0.766009	0.732325	0.978299
892	C	0.769074	0.763823	0.961328
893	C	0.750831	0.779464	0.980178
894	C	0.729798	0.764891	0.685502
895	H	0.78357	0.774856	0.933181
896	O	0.743684	0.690451	0.706712
897	H	0.712234	0.72236	0.730621
898	O	0.752129	0.806778	0.957106
899	H	0.766056	0.700071	0.723006
900	H	0.729785	0.79719	0.940766
901	N	0.785129	0.719163	0.958509
902	H	0.804422	0.735212	0.939353
903	N	0.710669	0.778045	0.705289
904	H	0.69138	0.761991	0.724445
905	C	0.763072	0.99262	0.702481
906	C	0.778738	0.526501	0.683627
907	C	0.764158	0.532984	0.978329
908	C	0.732676	0.504552	0.961318
909	C	0.717032	0.970659	0.980144
910	C	0.731581	0.964187	0.685482
911	H	0.721658	0.508026	0.933161
912	O	0.805997	0.552515	0.706778
913	H	0.774081	0.989143	0.730644
914	O	0.689739	0.944648	0.95704
915	H	0.796362	0.565245	0.723086
916	H	0.699347	0.931902	0.940713
917	N	0.777321	0.565277	0.958562
918	H	0.761273	0.568519	0.939406
919	N	0.718418	0.9319	0.705256
920	H	0.734463	0.92866	0.724428
921	C	0.503843	0.76975	0.70253
922	C	0.969967	0.751548	0.683651
923	C	0.963491	0.730477	0.978366
924	C	0.991918	0.7274	0.961391
925	C	0.525801	0.745631	0.980241
926	C	0.532269	0.766665	0.685565
927	H	0.988446	0.712901	0.93324
928	O	0.943956	0.752819	0.706772
929	H	0.507317	0.784246	0.730684
930	O	0.551811	0.744323	0.957169
931	H	0.931207	0.730459	0.723089
932	H	0.56457	0.766665	0.940822
933	N	0.931207	0.711362	0.958579
934	H	0.927961	0.69207	0.939416
935	N	0.564554	0.785788	0.705349
936	H	0.567798	0.805077	0.724515
