data_C720H288N216O216_2018-02-15_10:35:34
#******************************************
#
# CIF file created by Zeo++
# Zeo++ is an open source package to
# analyze microporous materials
#
#*******************************************

_cell_length_a		46.3899   
_cell_length_b		46.39   
_cell_length_c		29.5586   
_cell_angle_alpha		90   
_cell_angle_beta		90   
_cell_angle_gamma		120   

_symmetry_space_group_name_H-M		'P1'
_symmetry_Int_Tables_number		1
_symmetry_cell_setting		Monoclinic

loop_
_symmetry_equiv_pos_as_xyz
'+x,+y,+z'

loop_
_atom_site_label
_atom_site_type_symbol
_atom_site_fract_x
_atom_site_fract_y
_atom_site_fract_z
1	C	0.029251	0.2664	0.338889
2	C	0.048673	0.302035	0.339677
3	C	0.083862	0.319981	0.340104
4	C	0.101093	0.302077	0.340638
5	C	0.083641	0.266945	0.005781
6	C	0.048455	0.249952	0.004918
7	H	0.037638	0.31623	0.340327
8	O	0.135066	0.318978	0.341423
9	H	0.141283	0.321559	0.040257
10	H	0.037243	0.224717	0.003754
11	N	0.148838	0.252327	0.302061
12	C	0.118623	0.250221	0.299151
13	C	0.102036	0.250166	0.005947
14	N	0.118157	0.251625	0.045083
15	C	0.146838	0.250341	0.048687
16	H	0.11119	0.254211	0.268351
17	C	0.102508	0.355165	0.007645
18	N	0.118285	0.36991	0.301661
19	C	0.146372	0.400126	0.29867
20	N	0.148629	0.400482	0.044523
21	C	0.118728	0.371737	0.048268
22	N	0.107462	0.355725	0.09068
23	O	0.128733	0.367989	0.12181
24	O	0.08299	0.358371	0.102937
25	C	0.029251	0.2664	0.672223
26	C	0.048673	0.302035	0.673012
27	C	0.083862	0.319981	0.673438
28	C	0.101093	0.302077	0.673972
29	C	0.083641	0.266945	0.339112
30	C	0.048455	0.249952	0.33825
31	H	0.037638	0.31623	0.673661
32	O	0.135066	0.318978	0.674757
33	H	0.141283	0.321559	0.37359
34	H	0.037243	0.224717	0.337088
35	N	0.148838	0.252327	0.635395
36	C	0.118623	0.250221	0.632485
37	C	0.102036	0.250166	0.339278
38	N	0.118157	0.251625	0.378417
39	C	0.146838	0.250341	0.38202
40	H	0.11119	0.254211	0.601686
41	C	0.102508	0.355165	0.34098
42	N	0.118285	0.36991	0.634996
43	C	0.146372	0.400126	0.632005
44	N	0.148629	0.400482	0.377856
45	C	0.118728	0.371737	0.381601
46	N	0.107462	0.355725	0.424015
47	O	0.128733	0.367989	0.455143
48	O	0.08299	0.358371	0.436272
49	C	0.029251	0.2664	0.005554
50	C	0.048673	0.302035	0.006342
51	C	0.083862	0.319981	0.006769
52	C	0.101093	0.302077	0.007303
53	C	0.083641	0.266945	0.672447
54	C	0.048455	0.249952	0.671584
55	H	0.037638	0.31623	0.006995
56	O	0.135066	0.318978	0.008088
57	H	0.141283	0.321559	0.706924
58	H	0.037243	0.224717	0.67042
59	N	0.148838	0.252327	0.968729
60	C	0.118623	0.250221	0.96582
61	C	0.102036	0.250166	0.672612
62	N	0.118157	0.251625	0.711752
63	C	0.146838	0.250341	0.715355
64	H	0.11119	0.254211	0.93502
65	C	0.102508	0.355165	0.674311
66	N	0.118285	0.36991	0.96833
67	C	0.146372	0.400126	0.965336
68	N	0.148629	0.400482	0.71119
69	C	0.118728	0.371737	0.714935
70	N	0.107462	0.355725	0.757349
71	O	0.128733	0.367989	0.788477
72	O	0.08299	0.358371	0.769606
73	C	0.029252	0.766402	0.338889
74	C	0.048675	0.802036	0.339677
75	C	0.083863	0.819983	0.340104
76	C	0.101092	0.802076	0.340638
77	C	0.083641	0.766945	0.005781
78	C	0.048455	0.749951	0.004918
79	H	0.037638	0.816229	0.340327
80	O	0.135067	0.81898	0.341423
81	H	0.141282	0.821558	0.040257
82	H	0.037243	0.724717	0.003754
83	N	0.14884	0.752328	0.302061
84	C	0.118624	0.75022	0.299151
85	C	0.102038	0.750168	0.005947
86	N	0.118158	0.751624	0.045083
87	C	0.14684	0.750342	0.048687
88	H	0.11119	0.75421	0.268351
89	C	0.102509	0.855166	0.007645
90	N	0.118285	0.869909	0.301661
91	C	0.146372	0.900125	0.29867
92	N	0.148628	0.900481	0.044523
93	C	0.118729	0.871736	0.048268
94	N	0.107461	0.855724	0.09068
95	O	0.128732	0.867988	0.12181
96	O	0.08299	0.85837	0.102937
97	C	0.029252	0.766402	0.672223
98	C	0.048675	0.802036	0.673012
99	C	0.083863	0.819983	0.673438
100	C	0.101092	0.802076	0.673972
101	C	0.083641	0.766945	0.339112
102	C	0.048455	0.749951	0.33825
103	H	0.037638	0.816229	0.673661
104	O	0.135067	0.81898	0.674757
105	H	0.141282	0.821558	0.37359
106	H	0.037243	0.724717	0.337088
107	N	0.14884	0.752328	0.635395
108	C	0.118624	0.75022	0.632485
109	C	0.102038	0.750168	0.339278
110	N	0.118158	0.751624	0.378417
111	C	0.14684	0.750342	0.38202
112	H	0.11119	0.75421	0.601686
113	C	0.102509	0.855166	0.34098
114	N	0.118285	0.869909	0.634996
115	C	0.146372	0.900125	0.632005
116	N	0.148628	0.900481	0.377856
117	C	0.118729	0.871736	0.381601
118	N	0.107461	0.855724	0.424015
119	O	0.128732	0.867988	0.455143
120	O	0.08299	0.85837	0.436272
121	C	0.029252	0.766402	0.005554
122	C	0.048675	0.802036	0.006342
123	C	0.083863	0.819983	0.006769
124	C	0.101092	0.802076	0.007303
125	C	0.083641	0.766945	0.672447
126	C	0.048455	0.749951	0.671584
127	H	0.037638	0.816229	0.006995
128	O	0.135067	0.81898	0.008088
129	H	0.141282	0.821558	0.706924
130	H	0.037243	0.724717	0.67042
131	N	0.14884	0.752328	0.968729
132	C	0.118624	0.75022	0.96582
133	C	0.102038	0.750168	0.672612
134	N	0.118158	0.751624	0.711752
135	C	0.14684	0.750342	0.715355
136	H	0.11119	0.75421	0.93502
137	C	0.102509	0.855166	0.674311
138	N	0.118285	0.869909	0.96833
139	C	0.146372	0.900125	0.965336
140	N	0.148628	0.900481	0.71119
141	C	0.118729	0.871736	0.714935
142	N	0.107461	0.855724	0.757349
143	O	0.128732	0.867988	0.788477
144	O	0.08299	0.85837	0.769606
145	C	0.216573	0.250291	0.339789
146	C	0.198611	0.267518	0.340148
147	C	0.216506	0.302654	0.340696
148	H	0.202397	0.22506	0.340648
149	O	0.199592	0.319712	0.341602
150	H	0.196993	0.323269	0.04046
151	H	0.228481	0.19868	0.003352
152	C	0.215932	0.417629	0.340317
153	C	0.198253	0.435085	0.005574
154	C	0.216454	0.470269	0.004702
155	O	0.198857	0.38365	0.340922
156	H	0.228847	0.033937	0.34073
157	H	0.195285	0.377343	0.039729
158	H	0.202439	0.481485	0.003358
159	C	0.163421	0.250928	0.008017
160	N	0.162906	0.254888	0.091007
161	O	0.150754	0.263889	0.12229
162	O	0.160123	0.227668	0.103033
163	C	0.163078	0.416703	0.005317
164	H	0.157651	0.407777	0.267816
165	O	0.231407	0.078974	0.103042
166	C	0.216573	0.250291	0.673123
167	C	0.198611	0.267518	0.673482
168	C	0.216506	0.302654	0.674027
169	H	0.202397	0.22506	0.673983
170	O	0.199592	0.319712	0.674937
171	H	0.196993	0.323269	0.373793
172	H	0.228481	0.19868	0.336685
173	C	0.215932	0.417629	0.673651
174	C	0.198253	0.435085	0.338906
175	C	0.216454	0.470269	0.338033
176	O	0.198857	0.38365	0.674257
177	H	0.228847	0.033937	0.674064
178	H	0.195285	0.377343	0.373062
179	H	0.202439	0.481485	0.336691
180	C	0.163421	0.250928	0.341352
181	N	0.162906	0.254888	0.42434
182	O	0.150754	0.263889	0.455623
183	O	0.160123	0.227668	0.436367
184	C	0.163078	0.416703	0.338652
185	H	0.157651	0.407777	0.601148
186	O	0.231407	0.078974	0.436377
187	C	0.216573	0.250291	0.006457
188	C	0.198611	0.267518	0.006816
189	C	0.216506	0.302654	0.007361
190	H	0.202397	0.22506	0.007317
191	O	0.199592	0.319712	0.008268
192	H	0.196993	0.323269	0.707127
193	H	0.228481	0.19868	0.670018
194	C	0.215932	0.417629	0.006985
195	C	0.198253	0.435085	0.67224
196	C	0.216454	0.470269	0.671367
197	O	0.198857	0.38365	0.00759
198	H	0.228847	0.033937	0.007398
199	H	0.195285	0.377343	0.706396
200	H	0.202439	0.481485	0.670024
201	C	0.163421	0.250928	0.674683
202	N	0.162906	0.254888	0.757674
203	O	0.150754	0.263889	0.788957
204	O	0.160123	0.227668	0.769701
205	C	0.163078	0.416703	0.671983
206	H	0.157651	0.407777	0.934482
207	O	0.231407	0.078974	0.769708
208	C	0.216572	0.75029	0.339789
209	C	0.198611	0.767517	0.340148
210	C	0.216506	0.802653	0.340696
211	H	0.202397	0.72506	0.340648
212	O	0.199592	0.819711	0.341602
213	H	0.196993	0.823268	0.04046
214	H	0.228482	0.698681	0.003352
215	C	0.215933	0.917628	0.340317
216	C	0.198252	0.935084	0.005574
217	C	0.216455	0.970271	0.004702
218	O	0.198857	0.883649	0.340922
219	H	0.228847	0.533938	0.34073
220	H	0.195285	0.877342	0.039729
221	H	0.202439	0.981484	0.003358
222	C	0.163422	0.75093	0.008017
223	N	0.162906	0.754887	0.091007
224	O	0.150754	0.763888	0.12229
225	O	0.160123	0.727669	0.103033
226	C	0.16308	0.916705	0.005317
227	H	0.15765	0.907776	0.267816
228	O	0.231407	0.578974	0.103042
229	C	0.216572	0.75029	0.673123
230	C	0.198611	0.767517	0.673482
231	C	0.216506	0.802653	0.674027
232	H	0.202397	0.72506	0.673983
233	O	0.199592	0.819711	0.674937
234	H	0.196993	0.823268	0.373793
235	H	0.228482	0.698681	0.336685
236	C	0.215933	0.917628	0.673651
237	C	0.198252	0.935084	0.338906
238	C	0.216455	0.970271	0.338033
239	O	0.198857	0.883649	0.674257
240	H	0.228847	0.533938	0.674064
241	H	0.195285	0.877342	0.373062
242	H	0.202439	0.981484	0.336691
243	C	0.163422	0.75093	0.341352
244	N	0.162906	0.754887	0.42434
245	O	0.150754	0.763888	0.455623
246	O	0.160123	0.727669	0.436367
247	C	0.16308	0.916705	0.338652
248	H	0.15765	0.907776	0.601148
249	O	0.231407	0.578974	0.436377
250	C	0.216572	0.75029	0.006457
251	C	0.198611	0.767517	0.006816
252	C	0.216506	0.802653	0.007361
253	H	0.202397	0.72506	0.007317
254	O	0.199592	0.819711	0.008268
255	H	0.196993	0.823268	0.707127
256	H	0.228482	0.698681	0.670018
257	C	0.215933	0.917628	0.006985
258	C	0.198252	0.935084	0.67224
259	C	0.216455	0.970271	0.671367
260	O	0.198857	0.883649	0.00759
261	H	0.228847	0.533938	0.007398
262	H	0.195285	0.877342	0.706396
263	H	0.202439	0.981484	0.670024
264	C	0.163422	0.75093	0.674683
265	N	0.162906	0.754887	0.757674
266	O	0.150754	0.763888	0.788957
267	O	0.160123	0.727669	0.769701
268	C	0.16308	0.916705	0.671983
269	H	0.15765	0.907776	0.934482
270	O	0.231407	0.578974	0.769708
271	C	0.252203	0.266517	0.338805
272	C	0.251635	0.320345	0.00572
273	C	0.268637	0.302166	0.004671
274	C	0.270141	0.248359	0.338798
275	C	0.253711	0.212711	0.004695
276	C	0.270719	0.194535	0.005662
277	C	0.305848	0.212231	0.340648
278	C	0.323736	0.247367	0.340114
279	C	0.305772	0.264591	0.339755
280	O	0.322761	0.195174	0.341565
281	H	0.319945	0.28982	0.340608
282	H	0.325334	0.191598	0.040426
283	H	0.293866	0.316195	0.003298
284	C	0.252107	0.489473	0.338866
285	C	0.268317	0.470053	0.33982
286	C	0.25107	0.434866	0.340009
287	H	0.293545	0.481094	0.340719
288	C	0.270289	0.025569	0.338872
289	C	0.305941	0.044776	0.004732
290	C	0.324135	0.079962	0.005717
291	C	0.306448	0.097405	0.340675
292	C	0.271312	0.08017	0.340131
293	C	0.254076	0.044982	0.33984
294	O	0.323511	0.131375	0.341582
295	H	0.327034	0.137528	0.040444
296	H	0.31996	0.033565	0.003379
297	C	0.267605	0.41622	0.007624
298	N	0.266412	0.400245	0.301765
299	C	0.268464	0.372111	0.298977
300	C	0.268403	0.355503	0.005747
301	N	0.266812	0.370216	0.044783
302	C	0.268076	0.400171	0.048345
303	H	0.264781	0.36075	0.268172
304	N	0.263464	0.411648	0.09067
305	O	0.254361	0.390451	0.12191
306	O	0.290677	0.436036	0.102814
307	C	0.254733	0.098765	0.008036
308	N	0.256179	0.114765	0.302044
309	C	0.254045	0.142848	0.29896
310	C	0.253932	0.159351	0.005713
311	N	0.255364	0.144801	0.044958
312	C	0.254105	0.11485	0.048607
313	H	0.258108	0.154271	0.26815
314	N	0.258639	0.103371	0.090966
315	O	0.267685	0.124567	0.122198
316	C	0.252203	0.266517	0.672135
317	C	0.251635	0.320345	0.339052
318	C	0.268637	0.302166	0.338005
319	C	0.270141	0.248359	0.672132
320	C	0.253711	0.212711	0.338026
321	C	0.270719	0.194535	0.338994
322	C	0.305848	0.212231	0.673983
323	C	0.323736	0.247367	0.673448
324	C	0.305772	0.264591	0.673089
325	O	0.322761	0.195174	0.674899
326	H	0.319945	0.28982	0.673942
327	H	0.325334	0.191598	0.373759
328	H	0.293866	0.316195	0.336631
329	C	0.252107	0.489473	0.6722
330	C	0.268317	0.470053	0.673154
331	C	0.25107	0.434866	0.673343
332	H	0.293545	0.481094	0.674054
333	C	0.270289	0.025569	0.672206
334	C	0.305941	0.044776	0.338066
335	C	0.324135	0.079962	0.339048
336	C	0.306448	0.097405	0.674006
337	C	0.271312	0.08017	0.673465
338	C	0.254076	0.044982	0.673174
339	O	0.323511	0.131375	0.674916
340	H	0.327034	0.137528	0.373779
341	H	0.31996	0.033565	0.33671
342	C	0.267605	0.41622	0.340956
343	N	0.266412	0.400245	0.635101
344	C	0.268464	0.372111	0.632309
345	C	0.268403	0.355503	0.339079
346	N	0.266812	0.370216	0.378116
347	C	0.268076	0.400171	0.381679
348	H	0.264781	0.36075	0.601506
349	N	0.263464	0.411648	0.424005
350	O	0.254361	0.390451	0.455244
351	O	0.290677	0.436036	0.436147
352	C	0.254733	0.098765	0.341369
353	N	0.256179	0.114765	0.635378
354	C	0.254045	0.142848	0.632293
355	C	0.253932	0.159351	0.339045
356	N	0.255364	0.144801	0.378292
357	C	0.254105	0.11485	0.381939
358	H	0.258108	0.154271	0.601483
359	N	0.258639	0.103371	0.424299
360	O	0.267685	0.124567	0.455532
361	C	0.252203	0.266517	0.00547
362	C	0.251635	0.320345	0.672386
363	C	0.268637	0.302166	0.671337
364	C	0.270141	0.248359	0.005463
365	C	0.253711	0.212711	0.671361
366	C	0.270719	0.194535	0.672328
367	C	0.305848	0.212231	0.007313
368	C	0.323736	0.247367	0.006782
369	C	0.305772	0.264591	0.006424
370	O	0.322761	0.195174	0.008233
371	H	0.319945	0.28982	0.007276
372	H	0.325334	0.191598	0.707093
373	H	0.293866	0.316195	0.669963
374	C	0.252107	0.489473	0.00553
375	C	0.268317	0.470053	0.006488
376	C	0.25107	0.434866	0.006677
377	H	0.293545	0.481094	0.007388
378	C	0.270289	0.025569	0.005541
379	C	0.305941	0.044776	0.671401
380	C	0.324135	0.079962	0.672382
381	C	0.306448	0.097405	0.00734
382	C	0.271312	0.08017	0.006799
383	C	0.254076	0.044982	0.006505
384	O	0.323511	0.131375	0.00825
385	H	0.327034	0.137528	0.707113
386	H	0.31996	0.033565	0.670045
387	C	0.267605	0.41622	0.67429
388	N	0.266412	0.400245	0.968431
389	C	0.268464	0.372111	0.965644
390	C	0.268403	0.355503	0.672413
391	N	0.266812	0.370216	0.71145
392	C	0.268076	0.400171	0.715013
393	H	0.264781	0.36075	0.93484
394	N	0.263464	0.411648	0.757339
395	O	0.254361	0.390451	0.788579
396	O	0.290677	0.436036	0.769481
397	C	0.254733	0.098765	0.674703
398	N	0.256179	0.114765	0.968712
399	C	0.254045	0.142848	0.965627
400	C	0.253932	0.159351	0.672379
401	N	0.255364	0.144801	0.711626
402	C	0.254105	0.11485	0.715273
403	H	0.258108	0.154271	0.934817
404	N	0.258639	0.103371	0.757633
405	O	0.267685	0.124567	0.788866
406	C	0.252203	0.766516	0.338805
407	C	0.251635	0.820344	0.00572
408	C	0.268637	0.802166	0.004671
409	C	0.270141	0.748358	0.338798
410	C	0.253712	0.712712	0.004695
411	C	0.27072	0.694536	0.005662
412	C	0.305849	0.712231	0.340648
413	C	0.323736	0.747368	0.340114
414	C	0.305771	0.76459	0.339755
415	O	0.322762	0.695173	0.341565
416	H	0.319945	0.78982	0.340608
417	H	0.325335	0.691599	0.040426
418	H	0.293865	0.816194	0.003298
419	C	0.252107	0.989472	0.338866
420	C	0.268317	0.970054	0.33982
421	C	0.25107	0.934865	0.340009
422	H	0.293545	0.981093	0.340719
423	C	0.27029	0.52557	0.338872
424	C	0.305941	0.544776	0.004732
425	C	0.324136	0.579962	0.005717
426	C	0.306449	0.597406	0.340675
427	C	0.271312	0.580169	0.340131
428	C	0.254075	0.544982	0.33984
429	O	0.323511	0.631375	0.341582
430	H	0.327034	0.637528	0.040444
431	H	0.319961	0.533565	0.003379
432	C	0.267605	0.916219	0.007624
433	N	0.266413	0.900247	0.301765
434	C	0.268466	0.872112	0.298977
435	C	0.268404	0.855505	0.005747
436	N	0.266812	0.870216	0.044783
437	C	0.268077	0.900172	0.048345
438	H	0.264781	0.860749	0.268172
439	N	0.263464	0.911647	0.09067
440	O	0.25436	0.89045	0.12191
441	O	0.290678	0.936038	0.102814
442	C	0.254733	0.598765	0.008036
443	N	0.25618	0.614765	0.302044
444	C	0.254046	0.64285	0.29896
445	C	0.253932	0.65935	0.005713
446	N	0.255364	0.644801	0.044958
447	C	0.254105	0.61485	0.048607
448	H	0.258108	0.65427	0.26815
449	N	0.258638	0.60337	0.090966
450	O	0.267686	0.624567	0.122198
451	C	0.252203	0.766516	0.672135
452	C	0.251635	0.820344	0.339052
453	C	0.268637	0.802166	0.338005
454	C	0.270141	0.748358	0.672132
455	C	0.253712	0.712712	0.338026
456	C	0.27072	0.694536	0.338994
457	C	0.305849	0.712231	0.673983
458	C	0.323736	0.747368	0.673448
459	C	0.305771	0.76459	0.673089
460	O	0.322762	0.695173	0.674899
461	H	0.319945	0.78982	0.673942
462	H	0.325335	0.691599	0.373759
463	H	0.293865	0.816194	0.336631
464	C	0.252107	0.989472	0.6722
465	C	0.268317	0.970054	0.673154
466	C	0.25107	0.934865	0.673343
467	H	0.293545	0.981093	0.674054
468	C	0.27029	0.52557	0.672206
469	C	0.305941	0.544776	0.338066
470	C	0.324136	0.579962	0.339048
471	C	0.306449	0.597406	0.674006
472	C	0.271312	0.580169	0.673465
473	C	0.254075	0.544982	0.673174
474	O	0.323511	0.631375	0.674916
475	H	0.327034	0.637528	0.373779
476	H	0.319961	0.533565	0.33671
477	C	0.267605	0.916219	0.340956
478	N	0.266413	0.900247	0.635101
479	C	0.268466	0.872112	0.632309
480	C	0.268404	0.855505	0.339079
481	N	0.266812	0.870216	0.378116
482	C	0.268077	0.900172	0.381679
483	H	0.264781	0.860749	0.601506
484	N	0.263464	0.911647	0.424005
485	O	0.25436	0.89045	0.455244
486	O	0.290678	0.936038	0.436147
487	C	0.254733	0.598765	0.341369
488	N	0.25618	0.614765	0.635378
489	C	0.254046	0.64285	0.632293
490	C	0.253932	0.65935	0.339045
491	N	0.255364	0.644801	0.378292
492	C	0.254105	0.61485	0.381939
493	H	0.258108	0.65427	0.601483
494	N	0.258638	0.60337	0.424299
495	O	0.267686	0.624567	0.455532
496	C	0.252203	0.766516	0.00547
497	C	0.251635	0.820344	0.672386
498	C	0.268637	0.802166	0.671337
499	C	0.270141	0.748358	0.005463
500	C	0.253712	0.712712	0.671361
501	C	0.27072	0.694536	0.672328
502	C	0.305849	0.712231	0.007313
503	C	0.323736	0.747368	0.006782
504	C	0.305771	0.76459	0.006424
505	O	0.322762	0.695173	0.008233
506	H	0.319945	0.78982	0.007276
507	H	0.325335	0.691599	0.707093
508	H	0.293865	0.816194	0.669963
509	C	0.252107	0.989472	0.00553
510	C	0.268317	0.970054	0.006488
511	C	0.25107	0.934865	0.006677
512	H	0.293545	0.981093	0.007388
513	C	0.27029	0.52557	0.005541
514	C	0.305941	0.544776	0.671401
515	C	0.324136	0.579962	0.672382
516	C	0.306449	0.597406	0.00734
517	C	0.271312	0.580169	0.006799
518	C	0.254075	0.544982	0.006505
519	O	0.323511	0.631375	0.00825
520	H	0.327034	0.637528	0.707113
521	H	0.319961	0.533565	0.670045
522	C	0.267605	0.916219	0.67429
523	N	0.266413	0.900247	0.968431
524	C	0.268466	0.872112	0.965644
525	C	0.268404	0.855505	0.672413
526	N	0.266812	0.870216	0.71145
527	C	0.268077	0.900172	0.715013
528	H	0.264781	0.860749	0.93484
529	N	0.263464	0.911647	0.757339
530	O	0.25436	0.89045	0.788579
531	O	0.290678	0.936038	0.769481
532	C	0.254733	0.598765	0.674703
533	N	0.25618	0.614765	0.968712
534	C	0.254046	0.64285	0.965627
535	C	0.253932	0.65935	0.672379
536	N	0.255364	0.644801	0.711626
537	C	0.254105	0.61485	0.715273
538	H	0.258108	0.65427	0.934817
539	N	0.258638	0.60337	0.757633
540	O	0.267686	0.624567	0.788866
541	C	0.493152	0.248475	0.338862
542	C	0.473954	0.264927	0.004756
543	C	0.438768	0.247942	0.005541
544	C	0.421305	0.212809	0.3403
545	C	0.438532	0.194898	0.339958
546	C	0.473723	0.212842	0.339755
547	O	0.387331	0.195915	0.340997
548	H	0.484761	0.19865	0.340594
549	H	0.381073	0.193263	0.03982
550	H	0.485168	0.290161	0.003551
551	C	0.358911	0.263964	0.008018
552	N	0.373468	0.262627	0.301986
553	C	0.403691	0.26479	0.298816
554	C	0.420398	0.26473	0.005412
555	N	0.404288	0.263177	0.04464
556	C	0.375617	0.264451	0.048508
557	H	0.411024	0.260705	0.268008
558	N	0.359672	0.259787	0.090946
559	O	0.371974	0.250813	0.122065
560	O	0.362367	0.286936	0.103148
561	C	0.419877	0.159704	0.007658
562	N	0.403944	0.145036	0.301721
563	C	0.375799	0.114851	0.29889
564	C	0.359322	0.098363	0.00573
565	N	0.373911	0.114502	0.044882
566	C	0.403868	0.143207	0.048402
567	H	0.364393	0.107176	0.268111
568	N	0.415394	0.15931	0.090707
569	O	0.394235	0.147214	0.121992
570	O	0.439807	0.156504	0.102781
571	C	0.493152	0.248475	0.672196
572	C	0.473954	0.264927	0.338088
573	C	0.438768	0.247942	0.338872
574	C	0.421305	0.212809	0.673631
575	C	0.438532	0.194898	0.673292
576	C	0.473723	0.212842	0.673089
577	O	0.387331	0.195915	0.674331
578	H	0.484761	0.19865	0.673928
579	H	0.381073	0.193263	0.373153
580	H	0.485168	0.290161	0.336884
581	C	0.358911	0.263964	0.341352
582	N	0.373468	0.262627	0.63532
583	C	0.403691	0.26479	0.63215
584	C	0.420398	0.26473	0.338744
585	N	0.404288	0.263177	0.377974
586	C	0.375617	0.264451	0.381841
587	H	0.411024	0.260705	0.60134
588	N	0.359672	0.259787	0.424279
589	O	0.371974	0.250813	0.4554
590	O	0.362367	0.286936	0.436482
591	C	0.419877	0.159704	0.34099
592	N	0.403944	0.145036	0.635053
593	C	0.375799	0.114851	0.632225
594	C	0.359322	0.098363	0.339062
595	N	0.373911	0.114502	0.378214
596	C	0.403868	0.143207	0.381736
597	H	0.364393	0.107176	0.601445
598	N	0.415394	0.15931	0.424039
599	O	0.394235	0.147214	0.455326
600	O	0.439807	0.156504	0.436116
601	C	0.493152	0.248475	0.00553
602	C	0.473954	0.264927	0.671422
603	C	0.438768	0.247942	0.672206
604	C	0.421305	0.212809	0.006965
605	C	0.438532	0.194898	0.006627
606	C	0.473723	0.212842	0.006424
607	O	0.387331	0.195915	0.007664
608	H	0.484761	0.19865	0.007263
609	H	0.381073	0.193263	0.706487
610	H	0.485168	0.290161	0.670217
611	C	0.358911	0.263964	0.674686
612	N	0.373468	0.262627	0.968655
613	C	0.403691	0.26479	0.965485
614	C	0.420398	0.26473	0.672078
615	N	0.404288	0.263177	0.711308
616	C	0.375617	0.264451	0.715175
617	H	0.411024	0.260705	0.934675
618	N	0.359672	0.259787	0.757613
619	O	0.371974	0.250813	0.788731
620	O	0.362367	0.286936	0.769816
621	C	0.419877	0.159704	0.674324
622	N	0.403944	0.145036	0.968387
623	C	0.375799	0.114851	0.965559
624	C	0.359322	0.098363	0.672396
625	N	0.373911	0.114502	0.711549
626	C	0.403868	0.143207	0.71507
627	H	0.364393	0.107176	0.93478
628	N	0.415394	0.15931	0.757373
629	O	0.394235	0.147214	0.78866
630	O	0.439807	0.156504	0.769447
631	C	0.493152	0.748475	0.338862
632	C	0.473954	0.764928	0.004756
633	C	0.43877	0.747943	0.005541
634	C	0.421306	0.712809	0.3403
635	C	0.438532	0.694897	0.339958
636	C	0.473725	0.712844	0.339755
637	O	0.387331	0.695915	0.340997
638	H	0.484761	0.698651	0.340594
639	H	0.381074	0.693264	0.03982
640	H	0.485168	0.790161	0.003551
641	C	0.358912	0.763965	0.008018
642	N	0.373467	0.762626	0.301986
643	C	0.403693	0.764791	0.298816
644	C	0.420398	0.764729	0.005412
645	N	0.404289	0.763176	0.04464
646	C	0.375617	0.76445	0.048508
647	H	0.411024	0.760704	0.268008
648	N	0.359672	0.759786	0.090946
649	O	0.371974	0.750813	0.122065
650	O	0.362368	0.786937	0.103148
651	C	0.419877	0.659703	0.007658
652	N	0.403943	0.645035	0.301721
653	C	0.3758	0.614852	0.29889
654	C	0.359323	0.598362	0.00573
655	N	0.373909	0.614501	0.044882
656	C	0.403868	0.643206	0.048402
657	H	0.364393	0.607176	0.268111
658	N	0.415394	0.65931	0.090707
659	O	0.394237	0.647216	0.121992
660	O	0.439808	0.656505	0.102781
661	C	0.493152	0.748475	0.672196
662	C	0.473954	0.764928	0.338088
663	C	0.43877	0.747943	0.338872
664	C	0.421306	0.712809	0.673631
665	C	0.438532	0.694897	0.673292
666	C	0.473725	0.712844	0.673089
667	O	0.387331	0.695915	0.674331
668	H	0.484761	0.698651	0.673928
669	H	0.381074	0.693264	0.373153
670	H	0.485168	0.790161	0.336884
671	C	0.358912	0.763965	0.341352
672	N	0.373467	0.762626	0.63532
673	C	0.403693	0.764791	0.63215
674	C	0.420398	0.764729	0.338744
675	N	0.404289	0.763176	0.377974
676	C	0.375617	0.76445	0.381841
677	H	0.411024	0.760704	0.60134
678	N	0.359672	0.759786	0.424279
679	O	0.371974	0.750813	0.4554
680	O	0.362368	0.786937	0.436482
681	C	0.419877	0.659703	0.34099
682	N	0.403943	0.645035	0.635053
683	C	0.3758	0.614852	0.632225
684	C	0.359323	0.598362	0.339062
685	N	0.373909	0.614501	0.378214
686	C	0.403868	0.643206	0.381736
687	H	0.364393	0.607176	0.601445
688	N	0.415394	0.65931	0.424039
689	O	0.394237	0.647216	0.455326
690	O	0.439808	0.656505	0.436116
691	C	0.493152	0.748475	0.00553
692	C	0.473954	0.764928	0.671422
693	C	0.43877	0.747943	0.672206
694	C	0.421306	0.712809	0.006965
695	C	0.438532	0.694897	0.006627
696	C	0.473725	0.712844	0.006424
697	O	0.387331	0.695915	0.007664
698	H	0.484761	0.698651	0.007263
699	H	0.381074	0.693264	0.706487
700	H	0.485168	0.790161	0.670217
701	C	0.358912	0.763965	0.674686
702	N	0.373467	0.762626	0.968655
703	C	0.403693	0.764791	0.965485
704	C	0.420398	0.764729	0.672078
705	N	0.404289	0.763176	0.711308
706	C	0.375617	0.76445	0.715175
707	H	0.411024	0.760704	0.934675
708	N	0.359672	0.759786	0.757613
709	O	0.371974	0.750813	0.788731
710	O	0.362368	0.786937	0.769816
711	C	0.419877	0.659703	0.674324
712	N	0.403943	0.645035	0.968387
713	C	0.3758	0.614852	0.965559
714	C	0.359323	0.598362	0.672396
715	N	0.373909	0.614501	0.711549
716	C	0.403868	0.643206	0.71507
717	H	0.364393	0.607176	0.93478
718	N	0.415394	0.65931	0.757373
719	O	0.394237	0.647216	0.78866
720	O	0.439808	0.656505	0.769447
721	C	0.529252	0.2664	0.338889
722	C	0.548673	0.302035	0.339677
723	C	0.583863	0.319981	0.340104
724	C	0.601094	0.302077	0.340638
725	C	0.583642	0.266945	0.005781
726	C	0.548457	0.249952	0.004918
727	H	0.537638	0.31623	0.340327
728	O	0.635067	0.318978	0.341423
729	C	0.993153	0.248475	0.338862
730	C	0.973953	0.264927	0.004756
731	C	0.938769	0.247942	0.005541
732	C	0.921306	0.212809	0.3403
733	C	0.938533	0.194898	0.339958
734	C	0.973724	0.212842	0.339755
735	O	0.88733	0.195915	0.340997
736	H	0.984762	0.19865	0.340594
737	H	0.641283	0.321559	0.040257
738	H	0.881074	0.193263	0.03982
739	H	0.537244	0.224717	0.003754
740	H	0.985169	0.290161	0.003551
741	C	0.752204	0.266517	0.338805
742	C	0.716574	0.250291	0.339789
743	C	0.698611	0.267518	0.340148
744	C	0.716507	0.302654	0.340696
745	C	0.751635	0.320345	0.00572
746	C	0.768638	0.302166	0.004671
747	H	0.702398	0.22506	0.340648
748	O	0.699593	0.319712	0.341602
749	C	0.770142	0.248359	0.338798
750	C	0.753712	0.212711	0.004695
751	C	0.77072	0.194535	0.005662
752	C	0.805848	0.212231	0.340648
753	C	0.823737	0.247367	0.340114
754	C	0.805772	0.264591	0.339755
755	O	0.822763	0.195174	0.341565
756	H	0.819945	0.28982	0.340608
757	H	0.696993	0.323269	0.04046
758	H	0.825335	0.191598	0.040426
759	H	0.793866	0.316195	0.003298
760	H	0.728481	0.19868	0.003352
761	C	0.752108	0.489473	0.338866
762	C	0.768317	0.470053	0.33982
763	C	0.751071	0.434866	0.340009
764	C	0.715932	0.417629	0.340317
765	C	0.698253	0.435085	0.005574
766	C	0.716455	0.470269	0.004702
767	H	0.793545	0.481094	0.340719
768	O	0.698858	0.38365	0.340922
769	C	0.77029	0.025569	0.338872
770	C	0.805942	0.044776	0.004732
771	C	0.824137	0.079962	0.005717
772	C	0.806449	0.097405	0.340675
773	C	0.771313	0.08017	0.340131
774	C	0.754075	0.044982	0.33984
775	O	0.823512	0.131375	0.341582
776	H	0.728848	0.033937	0.34073
777	H	0.695284	0.377343	0.039729
778	H	0.827035	0.137528	0.040444
779	H	0.702438	0.481485	0.003358
780	H	0.819962	0.033565	0.003379
781	C	0.663422	0.250928	0.008017
782	N	0.648838	0.252327	0.302061
783	C	0.618623	0.250221	0.299151
784	C	0.602036	0.250166	0.005947
785	N	0.618157	0.251625	0.045083
786	C	0.646838	0.250341	0.048687
787	H	0.61119	0.254211	0.268351
788	N	0.662906	0.254888	0.091007
789	O	0.650754	0.263889	0.12229
790	O	0.660124	0.227668	0.103033
791	C	0.767605	0.41622	0.007624
792	N	0.766412	0.400245	0.301765
793	C	0.768465	0.372111	0.298977
794	C	0.768404	0.355503	0.005747
795	N	0.766813	0.370216	0.044783
796	C	0.768078	0.400171	0.048345
797	H	0.764781	0.36075	0.268172
798	N	0.763465	0.411648	0.09067
799	O	0.75436	0.390451	0.12191
800	O	0.790678	0.436036	0.102814
801	C	0.602507	0.355165	0.007645
802	N	0.618287	0.36991	0.301661
803	C	0.646372	0.400126	0.29867
804	C	0.663078	0.416703	0.005317
805	N	0.64863	0.400482	0.044523
806	C	0.618728	0.371737	0.048268
807	H	0.657652	0.407777	0.267816
808	N	0.607463	0.355725	0.09068
809	O	0.628734	0.367989	0.12181
810	O	0.582989	0.358371	0.102937
811	C	0.858912	0.263964	0.008018
812	N	0.873469	0.262627	0.301986
813	C	0.903692	0.26479	0.298816
814	C	0.920399	0.26473	0.005412
815	N	0.904289	0.263177	0.04464
816	C	0.875618	0.264451	0.048508
817	H	0.911025	0.260705	0.268008
818	N	0.859673	0.259787	0.090946
819	O	0.871975	0.250813	0.122065
820	O	0.862368	0.286936	0.103148
821	C	0.754734	0.098765	0.008036
822	N	0.756179	0.114765	0.302044
823	C	0.754045	0.142848	0.29896
824	C	0.753932	0.159351	0.005713
825	N	0.755364	0.144801	0.044958
826	C	0.754105	0.11485	0.048607
827	H	0.758109	0.154271	0.26815
828	N	0.758639	0.103371	0.090966
829	O	0.767685	0.124567	0.122198
830	O	0.731407	0.078974	0.103042
831	C	0.919878	0.159704	0.007658
832	N	0.903943	0.145036	0.301721
833	C	0.8758	0.114851	0.29889
834	C	0.859323	0.098363	0.00573
835	N	0.87391	0.114502	0.044882
836	C	0.903869	0.143207	0.048402
837	H	0.864394	0.107176	0.268111
838	N	0.915395	0.15931	0.090707
839	O	0.894236	0.147214	0.121992
840	O	0.939808	0.156504	0.102781
841	C	0.529252	0.2664	0.672223
842	C	0.548673	0.302035	0.673012
843	C	0.583863	0.319981	0.673438
844	C	0.601094	0.302077	0.673972
845	C	0.583642	0.266945	0.339112
846	C	0.548457	0.249952	0.33825
847	H	0.537638	0.31623	0.673661
848	O	0.635067	0.318978	0.674757
849	C	0.993153	0.248475	0.672196
850	C	0.973953	0.264927	0.338088
851	C	0.938769	0.247942	0.338872
852	C	0.921306	0.212809	0.673631
853	C	0.938533	0.194898	0.673292
854	C	0.973724	0.212842	0.673089
855	O	0.88733	0.195915	0.674331
856	H	0.984762	0.19865	0.673928
857	H	0.641283	0.321559	0.37359
858	H	0.881074	0.193263	0.373153
859	H	0.537244	0.224717	0.337088
860	H	0.985169	0.290161	0.336884
861	C	0.752204	0.266517	0.672135
862	C	0.716574	0.250291	0.673123
863	C	0.698611	0.267518	0.673482
864	C	0.716507	0.302654	0.674027
865	C	0.751635	0.320345	0.339052
866	C	0.768638	0.302166	0.338005
867	H	0.702398	0.22506	0.673983
868	O	0.699593	0.319712	0.674937
869	C	0.770142	0.248359	0.672132
870	C	0.753712	0.212711	0.338026
871	C	0.77072	0.194535	0.338994
872	C	0.805848	0.212231	0.673983
873	C	0.823737	0.247367	0.673448
874	C	0.805772	0.264591	0.673089
875	O	0.822763	0.195174	0.674899
876	H	0.819945	0.28982	0.673942
877	H	0.696993	0.323269	0.373793
878	H	0.825335	0.191598	0.373759
879	H	0.793866	0.316195	0.336631
880	H	0.728481	0.19868	0.336685
881	C	0.752108	0.489473	0.6722
882	C	0.768317	0.470053	0.673154
883	C	0.751071	0.434866	0.673343
884	C	0.715932	0.417629	0.673651
885	C	0.698253	0.435085	0.338906
886	C	0.716455	0.470269	0.338033
887	H	0.793545	0.481094	0.674054
888	O	0.698858	0.38365	0.674257
889	C	0.77029	0.025569	0.672206
890	C	0.805942	0.044776	0.338066
891	C	0.824137	0.079962	0.339048
892	C	0.806449	0.097405	0.674006
893	C	0.771313	0.08017	0.673465
894	C	0.754075	0.044982	0.673174
895	O	0.823512	0.131375	0.674916
896	H	0.728848	0.033937	0.674064
897	H	0.695284	0.377343	0.373062
898	H	0.827035	0.137528	0.373779
899	H	0.702438	0.481485	0.336691
900	H	0.819962	0.033565	0.33671
901	C	0.663422	0.250928	0.341352
902	N	0.648838	0.252327	0.635395
903	C	0.618623	0.250221	0.632485
904	C	0.602036	0.250166	0.339278
905	N	0.618157	0.251625	0.378417
906	C	0.646838	0.250341	0.38202
907	H	0.61119	0.254211	0.601686
908	N	0.662906	0.254888	0.42434
909	O	0.650754	0.263889	0.455623
910	O	0.660124	0.227668	0.436367
911	C	0.767605	0.41622	0.340956
912	N	0.766412	0.400245	0.635101
913	C	0.768465	0.372111	0.632309
914	C	0.768404	0.355503	0.339079
915	N	0.766813	0.370216	0.378116
916	C	0.768078	0.400171	0.381679
917	H	0.764781	0.36075	0.601506
918	N	0.763465	0.411648	0.424005
919	O	0.75436	0.390451	0.455244
920	O	0.790678	0.436036	0.436147
921	C	0.602507	0.355165	0.34098
922	N	0.618287	0.36991	0.634996
923	C	0.646372	0.400126	0.632005
924	C	0.663078	0.416703	0.338652
925	N	0.64863	0.400482	0.377856
926	C	0.618728	0.371737	0.381601
927	H	0.657652	0.407777	0.601148
928	N	0.607463	0.355725	0.424015
929	O	0.628734	0.367989	0.455143
930	O	0.582989	0.358371	0.436272
931	C	0.858912	0.263964	0.341352
932	N	0.873469	0.262627	0.63532
933	C	0.903692	0.26479	0.63215
934	C	0.920399	0.26473	0.338744
935	N	0.904289	0.263177	0.377974
936	C	0.875618	0.264451	0.381841
937	H	0.911025	0.260705	0.60134
938	N	0.859673	0.259787	0.424279
939	O	0.871975	0.250813	0.4554
940	O	0.862368	0.286936	0.436482
941	C	0.754734	0.098765	0.341369
942	N	0.756179	0.114765	0.635378
943	C	0.754045	0.142848	0.632293
944	C	0.753932	0.159351	0.339045
945	N	0.755364	0.144801	0.378292
946	C	0.754105	0.11485	0.381939
947	H	0.758109	0.154271	0.601483
948	N	0.758639	0.103371	0.424299
949	O	0.767685	0.124567	0.455532
950	O	0.731407	0.078974	0.436377
951	C	0.919878	0.159704	0.34099
952	N	0.903943	0.145036	0.635053
953	C	0.8758	0.114851	0.632225
954	C	0.859323	0.098363	0.339062
955	N	0.87391	0.114502	0.378214
956	C	0.903869	0.143207	0.381736
957	H	0.864394	0.107176	0.601445
958	N	0.915395	0.15931	0.424039
959	O	0.894236	0.147214	0.455326
960	O	0.939808	0.156504	0.436116
961	C	0.529252	0.2664	0.005554
962	C	0.548673	0.302035	0.006342
963	C	0.583863	0.319981	0.006769
964	C	0.601094	0.302077	0.007303
965	C	0.583642	0.266945	0.672447
966	C	0.548457	0.249952	0.671584
967	H	0.537638	0.31623	0.006995
968	O	0.635067	0.318978	0.008088
969	C	0.993153	0.248475	0.00553
970	C	0.973953	0.264927	0.671422
971	C	0.938769	0.247942	0.672206
972	C	0.921306	0.212809	0.006965
973	C	0.938533	0.194898	0.006627
974	C	0.973724	0.212842	0.006424
975	O	0.88733	0.195915	0.007664
976	H	0.984762	0.19865	0.007263
977	H	0.641283	0.321559	0.706924
978	H	0.881074	0.193263	0.706487
979	H	0.537244	0.224717	0.67042
980	H	0.985169	0.290161	0.670217
981	C	0.752204	0.266517	0.00547
982	C	0.716574	0.250291	0.006457
983	C	0.698611	0.267518	0.006816
984	C	0.716507	0.302654	0.007361
985	C	0.751635	0.320345	0.672386
986	C	0.768638	0.302166	0.671337
987	H	0.702398	0.22506	0.007317
988	O	0.699593	0.319712	0.008268
989	C	0.770142	0.248359	0.005463
990	C	0.753712	0.212711	0.671361
991	C	0.77072	0.194535	0.672328
992	C	0.805848	0.212231	0.007313
993	C	0.823737	0.247367	0.006782
994	C	0.805772	0.264591	0.006424
995	O	0.822763	0.195174	0.008233
996	H	0.819945	0.28982	0.007276
997	H	0.696993	0.323269	0.707127
998	H	0.825335	0.191598	0.707093
999	H	0.793866	0.316195	0.669963
1000	H	0.728481	0.19868	0.670018
1001	C	0.752108	0.489473	0.00553
1002	C	0.768317	0.470053	0.006488
1003	C	0.751071	0.434866	0.006677
1004	C	0.715932	0.417629	0.006985
1005	C	0.698253	0.435085	0.67224
1006	C	0.716455	0.470269	0.671367
1007	H	0.793545	0.481094	0.007388
1008	O	0.698858	0.38365	0.00759
1009	C	0.77029	0.025569	0.005541
1010	C	0.805942	0.044776	0.671401
1011	C	0.824137	0.079962	0.672382
1012	C	0.806449	0.097405	0.00734
1013	C	0.771313	0.08017	0.006799
1014	C	0.754075	0.044982	0.006505
1015	O	0.823512	0.131375	0.00825
1016	H	0.728848	0.033937	0.007398
1017	H	0.695284	0.377343	0.706396
1018	H	0.827035	0.137528	0.707113
1019	H	0.702438	0.481485	0.670024
1020	H	0.819962	0.033565	0.670045
1021	C	0.663422	0.250928	0.674683
1022	N	0.648838	0.252327	0.968729
1023	C	0.618623	0.250221	0.96582
1024	C	0.602036	0.250166	0.672612
1025	N	0.618157	0.251625	0.711752
1026	C	0.646838	0.250341	0.715355
1027	H	0.61119	0.254211	0.93502
1028	N	0.662906	0.254888	0.757674
1029	O	0.650754	0.263889	0.788957
1030	O	0.660124	0.227668	0.769701
1031	C	0.767605	0.41622	0.67429
1032	N	0.766412	0.400245	0.968431
1033	C	0.768465	0.372111	0.965644
1034	C	0.768404	0.355503	0.672413
1035	N	0.766813	0.370216	0.71145
1036	C	0.768078	0.400171	0.715013
1037	H	0.764781	0.36075	0.93484
1038	N	0.763465	0.411648	0.757339
1039	O	0.75436	0.390451	0.788579
1040	O	0.790678	0.436036	0.769481
1041	C	0.602507	0.355165	0.674311
1042	N	0.618287	0.36991	0.96833
1043	C	0.646372	0.400126	0.965336
1044	C	0.663078	0.416703	0.671983
1045	N	0.64863	0.400482	0.71119
1046	C	0.618728	0.371737	0.714935
1047	H	0.657652	0.407777	0.934482
1048	N	0.607463	0.355725	0.757349
1049	O	0.628734	0.367989	0.788477
1050	O	0.582989	0.358371	0.769606
1051	C	0.858912	0.263964	0.674686
1052	N	0.873469	0.262627	0.968655
1053	C	0.903692	0.26479	0.965485
1054	C	0.920399	0.26473	0.672078
1055	N	0.904289	0.263177	0.711308
1056	C	0.875618	0.264451	0.715175
1057	H	0.911025	0.260705	0.934675
1058	N	0.859673	0.259787	0.757613
1059	O	0.871975	0.250813	0.788731
1060	O	0.862368	0.286936	0.769816
1061	C	0.754734	0.098765	0.674703
1062	N	0.756179	0.114765	0.968712
1063	C	0.754045	0.142848	0.965627
1064	C	0.753932	0.159351	0.672379
1065	N	0.755364	0.144801	0.711626
1066	C	0.754105	0.11485	0.715273
1067	H	0.758109	0.154271	0.934817
1068	N	0.758639	0.103371	0.757633
1069	O	0.767685	0.124567	0.788866
1070	O	0.731407	0.078974	0.769708
1071	C	0.919878	0.159704	0.674324
1072	N	0.903943	0.145036	0.968387
1073	C	0.8758	0.114851	0.965559
1074	C	0.859323	0.098363	0.672396
1075	N	0.87391	0.114502	0.711549
1076	C	0.903869	0.143207	0.71507
1077	H	0.864394	0.107176	0.93478
1078	N	0.915395	0.15931	0.757373
1079	O	0.894236	0.147214	0.78866
1080	O	0.939808	0.156504	0.769447
1081	C	0.529253	0.766402	0.338889
1082	C	0.548675	0.802036	0.339677
1083	C	0.583864	0.819983	0.340104
1084	C	0.601093	0.802076	0.340638
1085	C	0.583642	0.766945	0.005781
1086	C	0.548456	0.749951	0.004918
1087	H	0.537638	0.816229	0.340327
1088	O	0.635068	0.81898	0.341423
1089	C	0.993153	0.748475	0.338862
1090	C	0.973956	0.764928	0.004756
1091	C	0.93877	0.747943	0.005541
1092	C	0.921306	0.712809	0.3403
1093	C	0.938533	0.694897	0.339958
1094	C	0.973725	0.712844	0.339755
1095	O	0.887332	0.695915	0.340997
1096	H	0.984762	0.698651	0.340594
1097	H	0.641283	0.821558	0.040257
1098	H	0.881075	0.693264	0.03982
1099	H	0.537244	0.724717	0.003754
1100	H	0.985169	0.790161	0.003551
1101	C	0.752204	0.766516	0.338805
1102	C	0.716574	0.75029	0.339789
1103	C	0.69861	0.767517	0.340148
1104	C	0.716506	0.802653	0.340696
1105	C	0.751635	0.820344	0.00572
1106	C	0.768638	0.802166	0.004671
1107	H	0.702398	0.72506	0.340648
1108	O	0.699592	0.819711	0.341602
1109	C	0.770141	0.748358	0.338798
1110	C	0.753712	0.712712	0.004695
1111	C	0.770721	0.694536	0.005662
1112	C	0.805848	0.712231	0.340648
1113	C	0.823737	0.747368	0.340114
1114	C	0.805772	0.76459	0.339755
1115	O	0.822762	0.695173	0.341565
1116	H	0.819945	0.78982	0.340608
1117	H	0.696992	0.823268	0.04046
1118	H	0.825336	0.691599	0.040426
1119	H	0.793865	0.816194	0.003298
1120	H	0.728482	0.698681	0.003352
1121	C	0.752108	0.989472	0.338866
1122	C	0.768318	0.970054	0.33982
1123	C	0.751071	0.934865	0.340009
1124	C	0.715931	0.917628	0.340317
1125	C	0.698253	0.935084	0.005574
1126	C	0.716456	0.970271	0.004702
1127	H	0.793547	0.981093	0.340719
1128	O	0.698858	0.883649	0.340922
1129	C	0.77029	0.52557	0.338872
1130	C	0.805942	0.544776	0.004732
1131	C	0.824137	0.579962	0.005717
1132	C	0.80645	0.597406	0.340675
1133	C	0.771313	0.580169	0.340131
1134	C	0.754075	0.544982	0.33984
1135	O	0.823512	0.631375	0.341582
1136	H	0.728848	0.533938	0.34073
1137	H	0.695286	0.877342	0.039729
1138	H	0.827035	0.637528	0.040444
1139	H	0.702439	0.981484	0.003358
1140	H	0.819962	0.533565	0.003379
1141	C	0.663423	0.75093	0.008017
1142	N	0.648839	0.752328	0.302061
1143	C	0.618623	0.75022	0.299151
1144	C	0.602037	0.750168	0.005947
1145	N	0.618159	0.751624	0.045083
1146	C	0.646839	0.750342	0.048687
1147	H	0.611189	0.75421	0.268351
1148	N	0.662905	0.754887	0.091007
1149	O	0.650753	0.763888	0.12229
1150	O	0.660124	0.727669	0.103033
1151	C	0.767605	0.916219	0.007624
1152	N	0.766413	0.900247	0.301765
1153	C	0.768466	0.872112	0.298977
1154	C	0.768405	0.855505	0.005747
1155	N	0.766812	0.870216	0.044783
1156	C	0.768079	0.900172	0.048345
1157	H	0.76478	0.860749	0.268172
1158	N	0.763465	0.911647	0.09067
1159	O	0.75436	0.89045	0.12191
1160	O	0.790679	0.936038	0.102814
1161	C	0.602509	0.855166	0.007645
1162	N	0.618286	0.869909	0.301661
1163	C	0.646372	0.900125	0.29867
1164	C	0.66308	0.916705	0.005317
1165	N	0.648629	0.900481	0.044523
1166	C	0.618729	0.871736	0.048268
1167	H	0.657651	0.907776	0.267816
1168	N	0.607462	0.855724	0.09068
1169	O	0.628733	0.867988	0.12181
1170	O	0.58299	0.85837	0.102937
1171	C	0.858913	0.763965	0.008018
1172	N	0.873468	0.762626	0.301986
1173	C	0.903693	0.764791	0.298816
1174	C	0.920399	0.764729	0.005412
1175	N	0.904289	0.763176	0.04464
1176	C	0.875618	0.76445	0.048508
1177	H	0.911025	0.760704	0.268008
1178	N	0.859673	0.759786	0.090946
1179	O	0.871974	0.750813	0.122065
1180	O	0.862369	0.786937	0.103148
1181	C	0.754734	0.598765	0.008036
1182	N	0.756181	0.614765	0.302044
1183	C	0.754048	0.64285	0.29896
1184	C	0.753932	0.65935	0.005713
1185	N	0.755364	0.644801	0.044958
1186	C	0.754105	0.61485	0.048607
1187	H	0.758109	0.65427	0.26815
1188	N	0.758638	0.60337	0.090966
1189	O	0.767687	0.624567	0.122198
1190	O	0.731407	0.578974	0.103042
1191	C	0.919877	0.659703	0.007658
1192	N	0.903944	0.645035	0.301721
1193	C	0.8758	0.614852	0.29889
1194	C	0.859323	0.598362	0.00573
1195	N	0.873909	0.614501	0.044882
1196	C	0.903868	0.643206	0.048402
1197	H	0.864394	0.607176	0.268111
1198	N	0.915395	0.65931	0.090707
1199	O	0.894237	0.647216	0.121992
1200	O	0.939809	0.656505	0.102781
1201	C	0.529253	0.766402	0.672223
1202	C	0.548675	0.802036	0.673012
1203	C	0.583864	0.819983	0.673438
1204	C	0.601093	0.802076	0.673972
1205	C	0.583642	0.766945	0.339112
1206	C	0.548456	0.749951	0.33825
1207	H	0.537638	0.816229	0.673661
1208	O	0.635068	0.81898	0.674757
1209	C	0.993153	0.748475	0.672196
1210	C	0.973956	0.764928	0.338088
1211	C	0.93877	0.747943	0.338872
1212	C	0.921306	0.712809	0.673631
1213	C	0.938533	0.694897	0.673292
1214	C	0.973725	0.712844	0.673089
1215	O	0.887332	0.695915	0.674331
1216	H	0.984762	0.698651	0.673928
1217	H	0.641283	0.821558	0.37359
1218	H	0.881075	0.693264	0.373153
1219	H	0.537244	0.724717	0.337088
1220	H	0.985169	0.790161	0.336884
1221	C	0.752204	0.766516	0.672135
1222	C	0.716574	0.75029	0.673123
1223	C	0.69861	0.767517	0.673482
1224	C	0.716506	0.802653	0.674027
1225	C	0.751635	0.820344	0.339052
1226	C	0.768638	0.802166	0.338005
1227	H	0.702398	0.72506	0.673983
1228	O	0.699592	0.819711	0.674937
1229	C	0.770141	0.748358	0.672132
1230	C	0.753712	0.712712	0.338026
1231	C	0.770721	0.694536	0.338994
1232	C	0.805848	0.712231	0.673983
1233	C	0.823737	0.747368	0.673448
1234	C	0.805772	0.76459	0.673089
1235	O	0.822762	0.695173	0.674899
1236	H	0.819945	0.78982	0.673942
1237	H	0.696992	0.823268	0.373793
1238	H	0.825336	0.691599	0.373759
1239	H	0.793865	0.816194	0.336631
1240	H	0.728482	0.698681	0.336685
1241	C	0.752108	0.989472	0.6722
1242	C	0.768318	0.970054	0.673154
1243	C	0.751071	0.934865	0.673343
1244	C	0.715931	0.917628	0.673651
1245	C	0.698253	0.935084	0.338906
1246	C	0.716456	0.970271	0.338033
1247	H	0.793547	0.981093	0.674054
1248	O	0.698858	0.883649	0.674257
1249	C	0.77029	0.52557	0.672206
1250	C	0.805942	0.544776	0.338066
1251	C	0.824137	0.579962	0.339048
1252	C	0.80645	0.597406	0.674006
1253	C	0.771313	0.580169	0.673465
1254	C	0.754075	0.544982	0.673174
1255	O	0.823512	0.631375	0.674916
1256	H	0.728848	0.533938	0.674064
1257	H	0.695286	0.877342	0.373062
1258	H	0.827035	0.637528	0.373779
1259	H	0.702439	0.981484	0.336691
1260	H	0.819962	0.533565	0.33671
1261	C	0.663423	0.75093	0.341352
1262	N	0.648839	0.752328	0.635395
1263	C	0.618623	0.75022	0.632485
1264	C	0.602037	0.750168	0.339278
1265	N	0.618159	0.751624	0.378417
1266	C	0.646839	0.750342	0.38202
1267	H	0.611189	0.75421	0.601686
1268	N	0.662905	0.754887	0.42434
1269	O	0.650753	0.763888	0.455623
1270	O	0.660124	0.727669	0.436367
1271	C	0.767605	0.916219	0.340956
1272	N	0.766413	0.900247	0.635101
1273	C	0.768466	0.872112	0.632309
1274	C	0.768405	0.855505	0.339079
1275	N	0.766812	0.870216	0.378116
1276	C	0.768079	0.900172	0.381679
1277	H	0.76478	0.860749	0.601506
1278	N	0.763465	0.911647	0.424005
1279	O	0.75436	0.89045	0.455244
1280	O	0.790679	0.936038	0.436147
1281	C	0.602509	0.855166	0.34098
1282	N	0.618286	0.869909	0.634996
1283	C	0.646372	0.900125	0.632005
1284	C	0.66308	0.916705	0.338652
1285	N	0.648629	0.900481	0.377856
1286	C	0.618729	0.871736	0.381601
1287	H	0.657651	0.907776	0.601148
1288	N	0.607462	0.855724	0.424015
1289	O	0.628733	0.867988	0.455143
1290	O	0.58299	0.85837	0.436272
1291	C	0.858913	0.763965	0.341352
1292	N	0.873468	0.762626	0.63532
1293	C	0.903693	0.764791	0.63215
1294	C	0.920399	0.764729	0.338744
1295	N	0.904289	0.763176	0.377974
1296	C	0.875618	0.76445	0.381841
1297	H	0.911025	0.760704	0.60134
1298	N	0.859673	0.759786	0.424279
1299	O	0.871974	0.750813	0.4554
1300	O	0.862369	0.786937	0.436482
1301	C	0.754734	0.598765	0.341369
1302	N	0.756181	0.614765	0.635378
1303	C	0.754048	0.64285	0.632293
1304	C	0.753932	0.65935	0.339045
1305	N	0.755364	0.644801	0.378292
1306	C	0.754105	0.61485	0.381939
1307	H	0.758109	0.65427	0.601483
1308	N	0.758638	0.60337	0.424299
1309	O	0.767687	0.624567	0.455532
1310	O	0.731407	0.578974	0.436377
1311	C	0.919877	0.659703	0.34099
1312	N	0.903944	0.645035	0.635053
1313	C	0.8758	0.614852	0.632225
1314	C	0.859323	0.598362	0.339062
1315	N	0.873909	0.614501	0.378214
1316	C	0.903868	0.643206	0.381736
1317	H	0.864394	0.607176	0.601445
1318	N	0.915395	0.65931	0.424039
1319	O	0.894237	0.647216	0.455326
1320	O	0.939809	0.656505	0.436116
1321	C	0.529253	0.766402	0.005554
1322	C	0.548675	0.802036	0.006342
1323	C	0.583864	0.819983	0.006769
1324	C	0.601093	0.802076	0.007303
1325	C	0.583642	0.766945	0.672447
1326	C	0.548456	0.749951	0.671584
1327	H	0.537638	0.816229	0.006995
1328	O	0.635068	0.81898	0.008088
1329	C	0.993153	0.748475	0.00553
1330	C	0.973956	0.764928	0.671422
1331	C	0.93877	0.747943	0.672206
1332	C	0.921306	0.712809	0.006965
1333	C	0.938533	0.694897	0.006627
1334	C	0.973725	0.712844	0.006424
1335	O	0.887332	0.695915	0.007664
1336	H	0.984762	0.698651	0.007263
1337	H	0.641283	0.821558	0.706924
1338	H	0.881075	0.693264	0.706487
1339	H	0.537244	0.724717	0.67042
1340	H	0.985169	0.790161	0.670217
1341	C	0.752204	0.766516	0.00547
1342	C	0.716574	0.75029	0.006457
1343	C	0.69861	0.767517	0.006816
1344	C	0.716506	0.802653	0.007361
1345	C	0.751635	0.820344	0.672386
1346	C	0.768638	0.802166	0.671337
1347	H	0.702398	0.72506	0.007317
1348	O	0.699592	0.819711	0.008268
1349	C	0.770141	0.748358	0.005463
1350	C	0.753712	0.712712	0.671361
1351	C	0.770721	0.694536	0.672328
1352	C	0.805848	0.712231	0.007313
1353	C	0.823737	0.747368	0.006782
1354	C	0.805772	0.76459	0.006424
1355	O	0.822762	0.695173	0.008233
1356	H	0.819945	0.78982	0.007276
1357	H	0.696992	0.823268	0.707127
1358	H	0.825336	0.691599	0.707093
1359	H	0.793865	0.816194	0.669963
1360	H	0.728482	0.698681	0.670018
1361	C	0.752108	0.989472	0.00553
1362	C	0.768318	0.970054	0.006488
1363	C	0.751071	0.934865	0.006677
1364	C	0.715931	0.917628	0.006985
1365	C	0.698253	0.935084	0.67224
1366	C	0.716456	0.970271	0.671367
1367	H	0.793547	0.981093	0.007388
1368	O	0.698858	0.883649	0.00759
1369	C	0.77029	0.52557	0.005541
1370	C	0.805942	0.544776	0.671401
1371	C	0.824137	0.579962	0.672382
1372	C	0.80645	0.597406	0.00734
1373	C	0.771313	0.580169	0.006799
1374	C	0.754075	0.544982	0.006505
1375	O	0.823512	0.631375	0.00825
1376	H	0.728848	0.533938	0.007398
1377	H	0.695286	0.877342	0.706396
1378	H	0.827035	0.637528	0.707113
1379	H	0.702439	0.981484	0.670024
1380	H	0.819962	0.533565	0.670045
1381	C	0.663423	0.75093	0.674683
1382	N	0.648839	0.752328	0.968729
1383	C	0.618623	0.75022	0.96582
1384	C	0.602037	0.750168	0.672612
1385	N	0.618159	0.751624	0.711752
1386	C	0.646839	0.750342	0.715355
1387	H	0.611189	0.75421	0.93502
1388	N	0.662905	0.754887	0.757674
1389	O	0.650753	0.763888	0.788957
1390	O	0.660124	0.727669	0.769701
1391	C	0.767605	0.916219	0.67429
1392	N	0.766413	0.900247	0.968431
1393	C	0.768466	0.872112	0.965644
1394	C	0.768405	0.855505	0.672413
1395	N	0.766812	0.870216	0.71145
1396	C	0.768079	0.900172	0.715013
1397	H	0.76478	0.860749	0.93484
1398	N	0.763465	0.911647	0.757339
1399	O	0.75436	0.89045	0.788579
1400	O	0.790679	0.936038	0.769481
1401	C	0.602509	0.855166	0.674311
1402	N	0.618286	0.869909	0.96833
1403	C	0.646372	0.900125	0.965336
1404	C	0.66308	0.916705	0.671983
1405	N	0.648629	0.900481	0.71119
1406	C	0.618729	0.871736	0.714935
1407	H	0.657651	0.907776	0.934482
1408	N	0.607462	0.855724	0.757349
1409	O	0.628733	0.867988	0.788477
1410	O	0.58299	0.85837	0.769606
1411	C	0.858913	0.763965	0.674686
1412	N	0.873468	0.762626	0.968655
1413	C	0.903693	0.764791	0.965485
1414	C	0.920399	0.764729	0.672078
1415	N	0.904289	0.763176	0.711308
1416	C	0.875618	0.76445	0.715175
1417	H	0.911025	0.760704	0.934675
1418	N	0.859673	0.759786	0.757613
1419	O	0.871974	0.750813	0.788731
1420	O	0.862369	0.786937	0.769816
1421	C	0.754734	0.598765	0.674703
1422	N	0.756181	0.614765	0.968712
1423	C	0.754048	0.64285	0.965627
1424	C	0.753932	0.65935	0.672379
1425	N	0.755364	0.644801	0.711626
1426	C	0.754105	0.61485	0.715273
1427	H	0.758109	0.65427	0.934817
1428	N	0.758638	0.60337	0.757633
1429	O	0.767687	0.624567	0.788866
1430	O	0.731407	0.578974	0.769708
1431	C	0.919877	0.659703	0.674324
1432	N	0.903944	0.645035	0.968387
1433	C	0.8758	0.614852	0.965559
1434	C	0.859323	0.598362	0.672396
1435	N	0.873909	0.614501	0.711549
1436	C	0.903868	0.643206	0.71507
1437	H	0.864394	0.607176	0.93478
1438	N	0.915395	0.65931	0.757373
1439	O	0.894237	0.647216	0.78866
1440	O	0.939809	0.656505	0.769447
