data_C432H144N216O72_2018-02-15_10:32:46
#******************************************
#
# CIF file created by Zeo++
# Zeo++ is an open source package to
# analyze microporous materials
#
#*******************************************

_cell_length_a		42.9322   
_cell_length_b		42.9322   
_cell_length_c		30.0902   
_cell_angle_alpha		90   
_cell_angle_beta		90   
_cell_angle_gamma		120   

_symmetry_space_group_name_H-M		'P1'
_symmetry_Int_Tables_number		1
_symmetry_cell_setting		Monoclinic

loop_
_symmetry_equiv_pos_as_xyz
'+x,+y,+z'

loop_
_atom_site_label
_atom_site_type_symbol
_atom_site_fract_x
_atom_site_fract_y
_atom_site_fract_z
1	C	0.176112	0.369604	0.946566
2	C	0.139135	0.343173	0.946038
3	C	0.126624	0.305755	0.946437
4	C	0.153064	0.295218	0.945991
5	C	0.190482	0.320123	0.279824
6	C	0.201032	0.357108	0.946025
7	H	0.144574	0.268505	0.948693
8	H	0.227734	0.375319	0.948893
9	H	0.120912	0.351661	0.948776
10	C	0.18698	0.406491	0.953379
11	C	0.21651	0.309263	0.286621
12	C	0.089731	0.279718	0.953167
13	O	0.25089	0.335215	0.962066
14	O	0.161024	0.414915	0.96216
15	O	0.081298	0.245328	0.961894
16	C	0.319459	0.127419	0.051939
17	C	0.356422	0.153893	0.052437
18	C	0.368866	0.191299	0.051943
19	C	0.34238	0.201776	0.052389
20	C	0.304973	0.176819	0.385295
21	C	0.294494	0.139856	0.052432
22	H	0.350823	0.228476	0.049636
23	H	0.26779	0.121603	0.049707
24	H	0.374678	0.145451	0.04967
25	C	0.308653	0.090532	0.045249
26	C	0.278893	0.187615	0.378538
27	C	0.405739	0.217378	0.045159
28	O	0.24452	0.161621	0.036468
29	O	0.334642	0.082153	0.036473
30	O	0.414107	0.251739	0.036357
31	C	0.266861	0.235602	0.024312
32	N	0.239585	0.21429	0.329485
33	C	0.220013	0.224836	0.304994
34	C	0.228433	0.261222	0.30764
35	N	0.255707	0.282534	0.002469
36	C	0.275272	0.271985	0.026969
37	C	0.300189	0.296272	0.052161
38	C	0.195095	0.200555	0.279801
39	N	0.173185	0.179114	0.257447
40	N	0.322094	0.317713	0.074516
41	N	0.209185	0.274398	0.286619
42	H	0.187682	0.256986	0.271077
43	N	0.28615	0.222455	0.045293
44	H	0.307655	0.23988	0.060824
45	C	0.260659	0.030498	0.024405
46	N	0.281958	0.024539	0.329544
47	C	0.271405	0.49442	0.305054
48	C	0.235016	0.466459	0.307701
49	N	0.213718	0.472421	0.002551
50	C	0.224274	0.002532	0.027059
51	C	0.199998	0.003165	0.052266
52	C	0.295669	0.493804	0.279803
53	N	0.317093	0.493352	0.2574
54	N	0.178563	0.003631	0.074634
55	N	0.221841	0.434036	0.286678
56	H	0.239251	0.429942	0.271132
57	N	0.273813	0.062951	0.045345
58	H	0.256392	0.067035	0.060877
59	C	0.465745	0.229388	0.024222
60	N	0.471694	0.25665	0.329379
61	C	0.001803	0.276213	0.304866
62	C	0.029764	0.267785	0.30749
63	N	0.023822	0.240537	0.002355
64	C	0.49372	0.22098	0.026874
65	C	0.493119	0.196108	0.052125
66	C	0.002423	0.301108	0.279643
67	N	0.002877	0.322996	0.257264
68	N	0.492683	0.174241	0.07453
69	N	0.062193	0.287041	0.286482
70	H	0.066293	0.308558	0.270963
71	N	0.433323	0.210123	0.045243
72	H	0.429253	0.188632	0.060799
73	C	0.176112	0.369604	0.279899
74	C	0.139135	0.343173	0.27937
75	C	0.126624	0.305755	0.279771
76	C	0.153064	0.295218	0.279324
77	C	0.190482	0.320123	0.613159
78	C	0.201032	0.357108	0.279356
79	H	0.144574	0.268505	0.282028
80	H	0.227734	0.375319	0.282226
81	H	0.120912	0.351661	0.282109
82	C	0.18698	0.406491	0.286712
83	C	0.21651	0.309263	0.619955
84	C	0.089731	0.279718	0.2865
85	O	0.25089	0.335215	0.295398
86	O	0.161024	0.414915	0.295491
87	O	0.081298	0.245328	0.295227
88	C	0.319459	0.127419	0.385275
89	C	0.356422	0.153893	0.38577
90	C	0.368866	0.191299	0.385278
91	C	0.34238	0.201776	0.385723
92	C	0.304973	0.176819	0.718629
93	C	0.294494	0.139856	0.385766
94	H	0.350823	0.228476	0.382971
95	H	0.26779	0.121603	0.383041
96	H	0.374678	0.145451	0.383005
97	C	0.308653	0.090532	0.378581
98	C	0.278893	0.187615	0.711872
99	C	0.405739	0.217378	0.378492
100	O	0.24452	0.161621	0.369801
101	O	0.334642	0.082153	0.369808
102	O	0.414107	0.251739	0.369691
103	C	0.266861	0.235602	0.357644
104	N	0.239585	0.21429	0.66282
105	C	0.220013	0.224836	0.638327
106	C	0.228433	0.261222	0.640972
107	N	0.255707	0.282534	0.335803
108	C	0.275272	0.271985	0.360303
109	C	0.300189	0.296272	0.385494
110	C	0.195095	0.200555	0.613136
111	N	0.173185	0.179114	0.59078
112	N	0.322094	0.317713	0.40785
113	N	0.209185	0.274398	0.619952
114	H	0.187682	0.256986	0.604412
115	N	0.28615	0.222455	0.378628
116	H	0.307655	0.23988	0.394158
117	C	0.260659	0.030498	0.357737
118	N	0.281958	0.024539	0.662876
119	C	0.271405	0.49442	0.638387
120	C	0.235016	0.466459	0.641035
121	N	0.213718	0.472421	0.335886
122	C	0.224274	0.002532	0.360393
123	C	0.199998	0.003165	0.3856
124	C	0.295669	0.493804	0.613136
125	N	0.317093	0.493352	0.590733
126	N	0.178563	0.003631	0.407966
127	N	0.221841	0.434036	0.620012
128	H	0.239251	0.429942	0.604465
129	N	0.273813	0.062951	0.378678
130	H	0.256392	0.067035	0.394211
131	C	0.465745	0.229388	0.357555
132	N	0.471694	0.25665	0.662713
133	C	0.001803	0.276213	0.638201
134	C	0.029764	0.267785	0.640823
135	N	0.023822	0.240537	0.335687
136	C	0.49372	0.22098	0.360207
137	C	0.493119	0.196108	0.385457
138	C	0.002423	0.301108	0.612976
139	N	0.002877	0.322996	0.590597
140	N	0.492683	0.174241	0.407863
141	N	0.062193	0.287041	0.619816
142	H	0.066293	0.308558	0.604296
143	N	0.433323	0.210123	0.378578
144	H	0.429253	0.188632	0.394131
145	C	0.176112	0.369604	0.613232
146	C	0.139135	0.343173	0.612704
147	C	0.126624	0.305755	0.613106
148	C	0.153064	0.295218	0.612657
149	C	0.190482	0.320123	0.94649
150	C	0.201032	0.357108	0.612691
151	H	0.144574	0.268505	0.615363
152	H	0.227734	0.375319	0.615562
153	H	0.120912	0.351661	0.615442
154	C	0.18698	0.406491	0.620045
155	C	0.21651	0.309263	0.95329
156	C	0.089731	0.279718	0.619832
157	O	0.25089	0.335215	0.628732
158	O	0.161024	0.414915	0.628825
159	O	0.081298	0.245328	0.62856
160	C	0.319459	0.127419	0.718605
161	C	0.356422	0.153893	0.719104
162	C	0.368866	0.191299	0.718612
163	C	0.34238	0.201776	0.719057
164	C	0.304973	0.176819	0.051962
165	C	0.294494	0.139856	0.719101
166	H	0.350823	0.228476	0.716302
167	H	0.26779	0.121603	0.716375
168	H	0.374678	0.145451	0.716339
169	C	0.308653	0.090532	0.711915
170	C	0.278893	0.187615	0.045204
171	C	0.405739	0.217378	0.711826
172	O	0.24452	0.161621	0.703135
173	O	0.334642	0.082153	0.703142
174	O	0.414107	0.251739	0.703026
175	C	0.266861	0.235602	0.690978
176	N	0.239585	0.21429	0.996154
177	C	0.220013	0.224836	0.971661
178	C	0.228433	0.261222	0.974306
179	N	0.255707	0.282534	0.669137
180	C	0.275272	0.271985	0.693637
181	C	0.300189	0.296272	0.718828
182	C	0.195095	0.200555	0.946467
183	N	0.173185	0.179114	0.924114
184	N	0.322094	0.317713	0.741184
185	N	0.209185	0.274398	0.953286
186	H	0.187682	0.256986	0.937746
187	N	0.28615	0.222455	0.711959
188	H	0.307655	0.23988	0.727492
189	C	0.260659	0.030498	0.691072
190	N	0.281958	0.024539	0.99621
191	C	0.271405	0.49442	0.971721
192	C	0.235016	0.466459	0.974369
193	N	0.213718	0.472421	0.669217
194	C	0.224274	0.002532	0.693727
195	C	0.199998	0.003165	0.718934
196	C	0.295669	0.493804	0.94647
197	N	0.317093	0.493352	0.924067
198	N	0.178563	0.003631	0.7413
199	N	0.221841	0.434036	0.953346
200	H	0.239251	0.429942	0.937799
201	N	0.273813	0.062951	0.712012
202	H	0.256392	0.067035	0.727545
203	C	0.465745	0.229388	0.690889
204	N	0.471694	0.25665	0.996044
205	C	0.001803	0.276213	0.971535
206	C	0.029764	0.267785	0.974157
207	N	0.023822	0.240537	0.669021
208	C	0.49372	0.22098	0.693541
209	C	0.493119	0.196108	0.718791
210	C	0.002423	0.301108	0.946311
211	N	0.002877	0.322996	0.923931
212	N	0.492683	0.174241	0.741197
213	N	0.062193	0.287041	0.95315
214	H	0.066293	0.308558	0.93763
215	N	0.433323	0.210123	0.711912
216	H	0.429253	0.188632	0.727465
217	C	0.176113	0.869604	0.946566
218	C	0.139134	0.843174	0.946038
219	C	0.126624	0.805756	0.946437
220	C	0.153063	0.795218	0.945991
221	C	0.190483	0.820124	0.279824
222	C	0.201033	0.857108	0.946025
223	H	0.144575	0.768505	0.948693
224	H	0.227735	0.87532	0.948893
225	H	0.120913	0.851662	0.948776
226	C	0.18698	0.906492	0.953379
227	C	0.216509	0.809261	0.286621
228	C	0.089732	0.779718	0.953167
229	O	0.25089	0.835215	0.962066
230	O	0.161025	0.914916	0.96216
231	O	0.081297	0.745326	0.961894
232	C	0.31946	0.62742	0.051939
233	C	0.356423	0.653894	0.052437
234	C	0.368867	0.691298	0.051943
235	C	0.342382	0.701776	0.052389
236	C	0.304974	0.67682	0.385295
237	C	0.294494	0.639857	0.052432
238	H	0.350823	0.728476	0.049636
239	H	0.26779	0.621602	0.049707
240	H	0.374679	0.645451	0.04967
241	C	0.308654	0.590532	0.045249
242	C	0.278893	0.687616	0.378538
243	C	0.40574	0.717379	0.045159
244	O	0.24452	0.661621	0.036468
245	O	0.334643	0.582154	0.036473
246	O	0.414107	0.751738	0.036357
247	C	0.266861	0.735601	0.024312
248	N	0.239585	0.714291	0.329485
249	C	0.220013	0.724837	0.304994
250	C	0.228433	0.761222	0.30764
251	N	0.255707	0.782534	0.002469
252	C	0.275272	0.771985	0.026969
253	C	0.300188	0.79627	0.052161
254	C	0.195095	0.700555	0.279801
255	N	0.173186	0.679114	0.257447
256	N	0.322094	0.817714	0.074516
257	N	0.209186	0.774398	0.286619
258	H	0.187682	0.756986	0.271077
259	N	0.286151	0.722457	0.045293
260	H	0.307655	0.73988	0.060824
261	C	0.26066	0.530498	0.024405
262	N	0.281956	0.524538	0.329544
263	C	0.271406	0.99442	0.305054
264	C	0.235017	0.966459	0.307701
265	N	0.213719	0.972422	0.002551
266	C	0.224274	0.502531	0.027059
267	C	0.199999	0.503166	0.052266
268	C	0.295669	0.993804	0.279803
269	N	0.317093	0.993352	0.2574
270	N	0.178563	0.503631	0.074634
271	N	0.221841	0.934036	0.286678
272	H	0.239251	0.929943	0.271132
273	N	0.273813	0.56295	0.045345
274	H	0.256393	0.567036	0.060877
275	C	0.465745	0.729388	0.024222
276	N	0.471694	0.756649	0.329379
277	C	0.001801	0.776211	0.304866
278	C	0.029764	0.767784	0.30749
279	N	0.023822	0.740536	0.002355
280	C	0.49372	0.72098	0.026874
281	C	0.493119	0.696107	0.052125
282	C	0.002424	0.801108	0.279643
283	N	0.002877	0.822996	0.257264
284	N	0.492683	0.67424	0.07453
285	N	0.062194	0.787042	0.286482
286	H	0.066292	0.808556	0.270963
287	N	0.433324	0.710122	0.045244
288	H	0.429254	0.688632	0.060799
289	C	0.176113	0.869604	0.279899
290	C	0.139134	0.843174	0.27937
291	C	0.126624	0.805756	0.279771
292	C	0.153063	0.795218	0.279324
293	C	0.190483	0.820124	0.613159
294	C	0.201033	0.857108	0.279356
295	H	0.144575	0.768505	0.282028
296	H	0.227735	0.87532	0.282226
297	H	0.120913	0.851662	0.282109
298	C	0.18698	0.906492	0.286712
299	C	0.216509	0.809261	0.619955
300	C	0.089732	0.779718	0.2865
301	O	0.25089	0.835215	0.295398
302	O	0.161025	0.914916	0.295491
303	O	0.081297	0.745326	0.295227
304	C	0.31946	0.62742	0.385275
305	C	0.356423	0.653894	0.38577
306	C	0.368867	0.691298	0.385278
307	C	0.342382	0.701776	0.385723
308	C	0.304974	0.67682	0.718629
309	C	0.294494	0.639857	0.385766
310	H	0.350823	0.728476	0.382971
311	H	0.26779	0.621602	0.383041
312	H	0.374679	0.645451	0.383005
313	C	0.308654	0.590532	0.378581
314	C	0.278893	0.687616	0.711872
315	C	0.40574	0.717379	0.378492
316	O	0.24452	0.661621	0.369801
317	O	0.334643	0.582154	0.369808
318	O	0.414107	0.751738	0.369691
319	C	0.266861	0.735601	0.357644
320	N	0.239585	0.714291	0.66282
321	C	0.220013	0.724837	0.638327
322	C	0.228433	0.761222	0.640972
323	N	0.255707	0.782534	0.335803
324	C	0.275272	0.771985	0.360303
325	C	0.300188	0.79627	0.385494
326	C	0.195095	0.700555	0.613136
327	N	0.173186	0.679114	0.59078
328	N	0.322094	0.817714	0.40785
329	N	0.209186	0.774398	0.619952
330	H	0.187682	0.756986	0.604412
331	N	0.286151	0.722457	0.378628
332	H	0.307655	0.73988	0.394158
333	C	0.26066	0.530498	0.357737
334	N	0.281956	0.524538	0.662876
335	C	0.271406	0.99442	0.638387
336	C	0.235017	0.966459	0.641035
337	N	0.213719	0.972422	0.335886
338	C	0.224274	0.502531	0.360393
339	C	0.199999	0.503166	0.3856
340	C	0.295669	0.993804	0.613136
341	N	0.317093	0.993352	0.590733
342	N	0.178563	0.503631	0.407966
343	N	0.221841	0.934036	0.620012
344	H	0.239251	0.929943	0.604465
345	N	0.273813	0.56295	0.378678
346	H	0.256393	0.567036	0.394211
347	C	0.465745	0.729388	0.357555
348	N	0.471694	0.756649	0.662713
349	C	0.001801	0.776211	0.638201
350	C	0.029764	0.767784	0.640823
351	N	0.023822	0.740536	0.335687
352	C	0.49372	0.72098	0.360207
353	C	0.493119	0.696107	0.385457
354	C	0.002424	0.801108	0.612976
355	N	0.002877	0.822996	0.590597
356	N	0.492683	0.67424	0.407863
357	N	0.062194	0.787042	0.619816
358	H	0.066292	0.808556	0.604296
359	N	0.433324	0.710122	0.378578
360	H	0.429254	0.688632	0.394131
361	C	0.176113	0.869604	0.613232
362	C	0.139134	0.843174	0.612704
363	C	0.126624	0.805756	0.613106
364	C	0.153063	0.795218	0.612657
365	C	0.190483	0.820124	0.94649
366	C	0.201033	0.857108	0.612691
367	H	0.144575	0.768505	0.615363
368	H	0.227735	0.87532	0.615562
369	H	0.120913	0.851662	0.615442
370	C	0.18698	0.906492	0.620045
371	C	0.216509	0.809261	0.95329
372	C	0.089732	0.779718	0.619832
373	O	0.25089	0.835215	0.628732
374	O	0.161025	0.914916	0.628825
375	O	0.081297	0.745326	0.62856
376	C	0.31946	0.62742	0.718605
377	C	0.356423	0.653894	0.719104
378	C	0.368867	0.691298	0.718612
379	C	0.342382	0.701776	0.719057
380	C	0.304974	0.67682	0.051962
381	C	0.294494	0.639857	0.719101
382	H	0.350823	0.728476	0.716302
383	H	0.26779	0.621602	0.716375
384	H	0.374679	0.645451	0.716339
385	C	0.308654	0.590532	0.711915
386	C	0.278893	0.687616	0.045204
387	C	0.40574	0.717379	0.711826
388	O	0.24452	0.661621	0.703135
389	O	0.334643	0.582154	0.703142
390	O	0.414107	0.751738	0.703026
391	C	0.266861	0.735601	0.690978
392	N	0.239585	0.714291	0.996154
393	C	0.220013	0.724837	0.971661
394	C	0.228433	0.761222	0.974306
395	N	0.255707	0.782534	0.669137
396	C	0.275272	0.771985	0.693637
397	C	0.300188	0.79627	0.718828
398	C	0.195095	0.700555	0.946467
399	N	0.173186	0.679114	0.924114
400	N	0.322094	0.817714	0.741184
401	N	0.209186	0.774398	0.953286
402	H	0.187682	0.756986	0.937746
403	N	0.286151	0.722457	0.711959
404	H	0.307655	0.73988	0.727492
405	C	0.26066	0.530498	0.691072
406	N	0.281956	0.524538	0.99621
407	C	0.271406	0.99442	0.971721
408	C	0.235017	0.966459	0.974369
409	N	0.213719	0.972422	0.669217
410	C	0.224274	0.502531	0.693727
411	C	0.199999	0.503166	0.718934
412	C	0.295669	0.993804	0.94647
413	N	0.317093	0.993352	0.924067
414	N	0.178563	0.503631	0.7413
415	N	0.221841	0.934036	0.953346
416	H	0.239251	0.929943	0.937799
417	N	0.273813	0.56295	0.712012
418	H	0.256393	0.567036	0.727545
419	C	0.465745	0.729388	0.690889
420	N	0.471694	0.756649	0.996044
421	C	0.001801	0.776211	0.971535
422	C	0.029764	0.767784	0.974157
423	N	0.023822	0.740536	0.669021
424	C	0.49372	0.72098	0.693541
425	C	0.493119	0.696107	0.718791
426	C	0.002424	0.801108	0.946311
427	N	0.002877	0.822996	0.923931
428	N	0.492683	0.67424	0.741197
429	N	0.062194	0.787042	0.95315
430	H	0.066292	0.808556	0.93763
431	N	0.433324	0.710122	0.711912
432	H	0.429254	0.688632	0.727465
433	C	0.676111	0.369604	0.946566
434	C	0.639135	0.343173	0.946038
435	C	0.626625	0.305755	0.946437
436	C	0.653064	0.295218	0.945991
437	C	0.690482	0.320123	0.279824
438	C	0.701031	0.357108	0.946025
439	H	0.644573	0.268505	0.948693
440	H	0.727734	0.375319	0.948893
441	H	0.620912	0.351661	0.948776
442	C	0.686981	0.406491	0.953379
443	C	0.71651	0.309263	0.286621
444	C	0.589731	0.279718	0.953167
445	O	0.75089	0.335215	0.962066
446	O	0.661024	0.414915	0.96216
447	O	0.581299	0.245328	0.961894
448	C	0.819459	0.127419	0.051939
449	C	0.856422	0.153893	0.052437
450	C	0.868866	0.191299	0.051943
451	C	0.84238	0.201776	0.052389
452	C	0.804972	0.176819	0.385295
453	C	0.794494	0.139856	0.052432
454	H	0.850823	0.228476	0.049636
455	H	0.767791	0.121603	0.049707
456	H	0.874678	0.145451	0.04967
457	C	0.808653	0.090532	0.045249
458	C	0.778892	0.187615	0.378538
459	C	0.905739	0.217378	0.045159
460	O	0.74452	0.161621	0.036468
461	O	0.834642	0.082153	0.036473
462	O	0.914107	0.251739	0.036357
463	C	0.766862	0.235602	0.024312
464	N	0.739584	0.21429	0.329485
465	C	0.720013	0.224836	0.304994
466	C	0.728433	0.261222	0.30764
467	N	0.755708	0.282534	0.002469
468	C	0.77527	0.271985	0.026969
469	C	0.800187	0.296272	0.052161
470	C	0.695094	0.200555	0.279801
471	N	0.673184	0.179114	0.257447
472	N	0.822093	0.317713	0.074516
473	N	0.709184	0.274398	0.286619
474	H	0.687682	0.256986	0.271077
475	N	0.78615	0.222455	0.045293
476	H	0.807655	0.23988	0.060824
477	C	0.760659	0.030498	0.024405
478	N	0.781955	0.024539	0.329544
479	C	0.771406	0.49442	0.305054
480	C	0.735016	0.466459	0.307701
481	N	0.713717	0.472421	0.002551
482	C	0.724273	0.002532	0.027059
483	C	0.699998	0.003165	0.052266
484	C	0.795669	0.493804	0.279803
485	N	0.817092	0.493352	0.2574
486	N	0.678564	0.003631	0.074634
487	N	0.721842	0.434036	0.286678
488	H	0.739251	0.429942	0.271132
489	N	0.773813	0.062951	0.045345
490	H	0.756392	0.067035	0.060877
491	C	0.965745	0.229388	0.024222
492	N	0.971694	0.25665	0.329379
493	C	0.501803	0.276213	0.304866
494	C	0.529765	0.267785	0.30749
495	N	0.523821	0.240537	0.002355
496	C	0.99372	0.22098	0.026874
497	C	0.993119	0.196108	0.052125
498	C	0.502423	0.301108	0.279643
499	N	0.502876	0.322996	0.257264
500	N	0.992683	0.174241	0.07453
501	N	0.562192	0.287041	0.286482
502	H	0.566294	0.308558	0.270963
503	N	0.933323	0.210123	0.045243
504	H	0.929253	0.188632	0.060799
505	C	0.676111	0.369604	0.279899
506	C	0.639135	0.343173	0.27937
507	C	0.626625	0.305755	0.279771
508	C	0.653064	0.295218	0.279324
509	C	0.690482	0.320123	0.613159
510	C	0.701031	0.357108	0.279356
511	H	0.644573	0.268505	0.282028
512	H	0.727734	0.375319	0.282226
513	H	0.620912	0.351661	0.282109
514	C	0.686981	0.406491	0.286712
515	C	0.71651	0.309263	0.619955
516	C	0.589731	0.279718	0.2865
517	O	0.75089	0.335215	0.295398
518	O	0.661024	0.414915	0.295491
519	O	0.581299	0.245328	0.295227
520	C	0.819459	0.127419	0.385275
521	C	0.856422	0.153893	0.38577
522	C	0.868866	0.191299	0.385278
523	C	0.84238	0.201776	0.385723
524	C	0.804972	0.176819	0.718629
525	C	0.794494	0.139856	0.385766
526	H	0.850823	0.228476	0.382971
527	H	0.767791	0.121603	0.383041
528	H	0.874678	0.145451	0.383005
529	C	0.808653	0.090532	0.378581
530	C	0.778892	0.187615	0.711872
531	C	0.905739	0.217378	0.378492
532	O	0.74452	0.161621	0.369801
533	O	0.834642	0.082153	0.369808
534	O	0.914107	0.251739	0.369691
535	C	0.766862	0.235602	0.357644
536	N	0.739584	0.21429	0.66282
537	C	0.720013	0.224836	0.638327
538	C	0.728433	0.261222	0.640972
539	N	0.755708	0.282534	0.335803
540	C	0.77527	0.271985	0.360303
541	C	0.800187	0.296272	0.385494
542	C	0.695094	0.200555	0.613136
543	N	0.673184	0.179114	0.59078
544	N	0.822093	0.317713	0.40785
545	N	0.709184	0.274398	0.619952
546	H	0.687682	0.256986	0.604412
547	N	0.78615	0.222455	0.378628
548	H	0.807655	0.23988	0.394158
549	C	0.760659	0.030498	0.357737
550	N	0.781955	0.024539	0.662876
551	C	0.771406	0.49442	0.638387
552	C	0.735016	0.466459	0.641035
553	N	0.713717	0.472421	0.335886
554	C	0.724273	0.002532	0.360393
555	C	0.699998	0.003165	0.3856
556	C	0.795669	0.493804	0.613136
557	N	0.817092	0.493352	0.590733
558	N	0.678564	0.003631	0.407966
559	N	0.721842	0.434036	0.620012
560	H	0.739251	0.429942	0.604465
561	N	0.773813	0.062951	0.378678
562	H	0.756392	0.067035	0.394211
563	C	0.965745	0.229388	0.357555
564	N	0.971694	0.25665	0.662713
565	C	0.501803	0.276213	0.638201
566	C	0.529765	0.267785	0.640823
567	N	0.523821	0.240537	0.335687
568	C	0.99372	0.22098	0.360207
569	C	0.993119	0.196108	0.385457
570	C	0.502423	0.301108	0.612976
571	N	0.502876	0.322996	0.590597
572	N	0.992683	0.174241	0.407863
573	N	0.562192	0.287041	0.619816
574	H	0.566294	0.308558	0.604296
575	N	0.933323	0.210123	0.378578
576	H	0.929253	0.188632	0.394131
577	C	0.676111	0.369604	0.613232
578	C	0.639135	0.343173	0.612704
579	C	0.626625	0.305755	0.613106
580	C	0.653064	0.295218	0.612657
581	C	0.690482	0.320123	0.94649
582	C	0.701031	0.357108	0.612691
583	H	0.644573	0.268505	0.615363
584	H	0.727734	0.375319	0.615562
585	H	0.620912	0.351661	0.615442
586	C	0.686981	0.406491	0.620045
587	C	0.71651	0.309263	0.95329
588	C	0.589731	0.279718	0.619832
589	O	0.75089	0.335215	0.628732
590	O	0.661024	0.414915	0.628825
591	O	0.581299	0.245328	0.62856
592	C	0.819459	0.127419	0.718605
593	C	0.856422	0.153893	0.719104
594	C	0.868866	0.191299	0.718612
595	C	0.84238	0.201776	0.719057
596	C	0.804972	0.176819	0.051962
597	C	0.794494	0.139856	0.719101
598	H	0.850823	0.228476	0.716302
599	H	0.767791	0.121603	0.716375
600	H	0.874678	0.145451	0.716339
601	C	0.808653	0.090532	0.711915
602	C	0.778892	0.187615	0.045204
603	C	0.905739	0.217378	0.711826
604	O	0.74452	0.161621	0.703135
605	O	0.834642	0.082153	0.703142
606	O	0.914107	0.251739	0.703026
607	C	0.766862	0.235602	0.690978
608	N	0.739584	0.21429	0.996154
609	C	0.720013	0.224836	0.971661
610	C	0.728433	0.261222	0.974306
611	N	0.755708	0.282534	0.669137
612	C	0.77527	0.271985	0.693637
613	C	0.800187	0.296272	0.718828
614	C	0.695094	0.200555	0.946467
615	N	0.673184	0.179114	0.924114
616	N	0.822093	0.317713	0.741184
617	N	0.709184	0.274398	0.953286
618	H	0.687682	0.256986	0.937746
619	N	0.78615	0.222455	0.711959
620	H	0.807655	0.23988	0.727492
621	C	0.760659	0.030498	0.691072
622	N	0.781955	0.024539	0.99621
623	C	0.771406	0.49442	0.971721
624	C	0.735016	0.466459	0.974369
625	N	0.713717	0.472421	0.669217
626	C	0.724273	0.002532	0.693727
627	C	0.699998	0.003165	0.718934
628	C	0.795669	0.493804	0.94647
629	N	0.817092	0.493352	0.924067
630	N	0.678564	0.003631	0.7413
631	N	0.721842	0.434036	0.953346
632	H	0.739251	0.429942	0.937799
633	N	0.773813	0.062951	0.712012
634	H	0.756392	0.067035	0.727545
635	C	0.965745	0.229388	0.690889
636	N	0.971694	0.25665	0.996044
637	C	0.501803	0.276213	0.971535
638	C	0.529765	0.267785	0.974157
639	N	0.523821	0.240537	0.669021
640	C	0.99372	0.22098	0.693541
641	C	0.993119	0.196108	0.718791
642	C	0.502423	0.301108	0.946311
643	N	0.502876	0.322996	0.923931
644	N	0.992683	0.174241	0.741197
645	N	0.562192	0.287041	0.95315
646	H	0.566294	0.308558	0.93763
647	N	0.933323	0.210123	0.711912
648	H	0.929253	0.188632	0.727465
649	C	0.676113	0.869604	0.946566
650	C	0.639135	0.843174	0.946038
651	C	0.626624	0.805756	0.946437
652	C	0.653063	0.795218	0.945991
653	C	0.690483	0.820124	0.279824
654	C	0.701033	0.857108	0.946025
655	H	0.644575	0.768505	0.948693
656	H	0.727733	0.87532	0.948893
657	H	0.620912	0.851662	0.948776
658	C	0.68698	0.906492	0.953379
659	C	0.716508	0.809261	0.286621
660	C	0.589732	0.779718	0.953167
661	O	0.750891	0.835215	0.962066
662	O	0.661024	0.914916	0.96216
663	O	0.581298	0.745326	0.961894
664	C	0.819461	0.62742	0.051939
665	C	0.856423	0.653894	0.052437
666	C	0.868867	0.691298	0.051943
667	C	0.842382	0.701776	0.052389
668	C	0.804973	0.67682	0.385295
669	C	0.794493	0.639857	0.052432
670	H	0.850824	0.728476	0.049636
671	H	0.767789	0.621602	0.049707
672	H	0.874679	0.645451	0.04967
673	C	0.808655	0.590532	0.045249
674	C	0.778894	0.687616	0.378538
675	C	0.90574	0.717379	0.045159
676	O	0.744519	0.661621	0.036468
677	O	0.834643	0.582154	0.036473
678	O	0.914106	0.751738	0.036357
679	C	0.76686	0.735601	0.024312
680	N	0.739586	0.714291	0.329485
681	C	0.720013	0.724837	0.304994
682	C	0.728434	0.761222	0.30764
683	N	0.755707	0.782534	0.002469
684	C	0.775272	0.771985	0.026969
685	C	0.800187	0.79627	0.052161
686	C	0.695096	0.700555	0.279801
687	N	0.673185	0.679114	0.257447
688	N	0.822095	0.817714	0.074516
689	N	0.709186	0.774398	0.286619
690	H	0.687683	0.756986	0.271077
691	N	0.786152	0.722457	0.045293
692	H	0.807653	0.73988	0.060824
693	C	0.76066	0.530498	0.024405
694	N	0.781956	0.524538	0.329544
695	C	0.771405	0.99442	0.305054
696	C	0.735017	0.966459	0.307701
697	N	0.713718	0.972422	0.002551
698	C	0.724274	0.502531	0.027059
699	C	0.699999	0.503166	0.052266
700	C	0.795669	0.993804	0.279803
701	N	0.817093	0.993352	0.2574
702	N	0.678563	0.503631	0.074634
703	N	0.721841	0.934036	0.286678
704	H	0.73925	0.929943	0.271132
705	N	0.773812	0.56295	0.045345
706	H	0.756391	0.567036	0.060877
707	C	0.965744	0.729388	0.024222
708	N	0.971693	0.756649	0.329379
709	C	0.501802	0.776211	0.304866
710	C	0.529764	0.767784	0.30749
711	N	0.523821	0.740536	0.002355
712	C	0.993719	0.72098	0.026874
713	C	0.993119	0.696107	0.052125
714	C	0.502423	0.801108	0.279643
715	N	0.502877	0.822996	0.257264
716	N	0.992682	0.67424	0.07453
717	N	0.562193	0.787042	0.286482
718	H	0.566292	0.808556	0.270963
719	N	0.933324	0.710122	0.045244
720	H	0.929252	0.688632	0.060799
721	C	0.676113	0.869604	0.279899
722	C	0.639135	0.843174	0.27937
723	C	0.626624	0.805756	0.279771
724	C	0.653063	0.795218	0.279324
725	C	0.690483	0.820124	0.613159
726	C	0.701033	0.857108	0.279356
727	H	0.644575	0.768505	0.282028
728	H	0.727733	0.87532	0.282226
729	H	0.620912	0.851662	0.282109
730	C	0.68698	0.906492	0.286712
731	C	0.716508	0.809261	0.619955
732	C	0.589732	0.779718	0.2865
733	O	0.750891	0.835215	0.295398
734	O	0.661024	0.914916	0.295491
735	O	0.581298	0.745326	0.295227
736	C	0.819461	0.62742	0.385275
737	C	0.856423	0.653894	0.38577
738	C	0.868867	0.691298	0.385278
739	C	0.842382	0.701776	0.385723
740	C	0.804973	0.67682	0.718629
741	C	0.794493	0.639857	0.385766
742	H	0.850824	0.728476	0.382971
743	H	0.767789	0.621602	0.383041
744	H	0.874679	0.645451	0.383005
745	C	0.808655	0.590532	0.378581
746	C	0.778894	0.687616	0.711872
747	C	0.90574	0.717379	0.378492
748	O	0.744519	0.661621	0.369801
749	O	0.834643	0.582154	0.369808
750	O	0.914106	0.751738	0.369691
751	C	0.76686	0.735601	0.357644
752	N	0.739586	0.714291	0.66282
753	C	0.720013	0.724837	0.638327
754	C	0.728434	0.761222	0.640972
755	N	0.755707	0.782534	0.335803
756	C	0.775272	0.771985	0.360303
757	C	0.800187	0.79627	0.385494
758	C	0.695096	0.700555	0.613136
759	N	0.673185	0.679114	0.59078
760	N	0.822095	0.817714	0.40785
761	N	0.709186	0.774398	0.619952
762	H	0.687683	0.756986	0.604412
763	N	0.786152	0.722457	0.378628
764	H	0.807653	0.73988	0.394158
765	C	0.76066	0.530498	0.357737
766	N	0.781956	0.524538	0.662876
767	C	0.771405	0.99442	0.638387
768	C	0.735017	0.966459	0.641035
769	N	0.713718	0.972422	0.335886
770	C	0.724274	0.502531	0.360393
771	C	0.699999	0.503166	0.3856
772	C	0.795669	0.993804	0.613136
773	N	0.817093	0.993352	0.590733
774	N	0.678563	0.503631	0.407966
775	N	0.721841	0.934036	0.620012
776	H	0.73925	0.929943	0.604465
777	N	0.773812	0.56295	0.378678
778	H	0.756391	0.567036	0.394211
779	C	0.965744	0.729388	0.357555
780	N	0.971693	0.756649	0.662713
781	C	0.501802	0.776211	0.638201
782	C	0.529764	0.767784	0.640823
783	N	0.523821	0.740536	0.335687
784	C	0.993719	0.72098	0.360207
785	C	0.993119	0.696107	0.385457
786	C	0.502423	0.801108	0.612976
787	N	0.502877	0.822996	0.590597
788	N	0.992682	0.67424	0.407863
789	N	0.562193	0.787042	0.619816
790	H	0.566292	0.808556	0.604296
791	N	0.933324	0.710122	0.378578
792	H	0.929252	0.688632	0.394131
793	C	0.676113	0.869604	0.613232
794	C	0.639135	0.843174	0.612704
795	C	0.626624	0.805756	0.613106
796	C	0.653063	0.795218	0.612657
797	C	0.690483	0.820124	0.94649
798	C	0.701033	0.857108	0.612691
799	H	0.644575	0.768505	0.615363
800	H	0.727733	0.87532	0.615562
801	H	0.620912	0.851662	0.615442
802	C	0.68698	0.906492	0.620045
803	C	0.716508	0.809261	0.95329
804	C	0.589732	0.779718	0.619832
805	O	0.750891	0.835215	0.628732
806	O	0.661024	0.914916	0.628825
807	O	0.581298	0.745326	0.62856
808	C	0.819461	0.62742	0.718605
809	C	0.856423	0.653894	0.719104
810	C	0.868867	0.691298	0.718612
811	C	0.842382	0.701776	0.719057
812	C	0.804973	0.67682	0.051962
813	C	0.794493	0.639857	0.719101
814	H	0.850824	0.728476	0.716302
815	H	0.767789	0.621602	0.716375
816	H	0.874679	0.645451	0.716339
817	C	0.808655	0.590532	0.711915
818	C	0.778894	0.687616	0.045204
819	C	0.90574	0.717379	0.711826
820	O	0.744519	0.661621	0.703135
821	O	0.834643	0.582154	0.703142
822	O	0.914106	0.751738	0.703026
823	C	0.76686	0.735601	0.690978
824	N	0.739586	0.714291	0.996154
825	C	0.720013	0.724837	0.971661
826	C	0.728434	0.761222	0.974306
827	N	0.755707	0.782534	0.669137
828	C	0.775272	0.771985	0.693637
829	C	0.800187	0.79627	0.718828
830	C	0.695096	0.700555	0.946467
831	N	0.673185	0.679114	0.924114
832	N	0.822095	0.817714	0.741184
833	N	0.709186	0.774398	0.953286
834	H	0.687683	0.756986	0.937746
835	N	0.786152	0.722457	0.711959
836	H	0.807653	0.73988	0.727492
837	C	0.76066	0.530498	0.691072
838	N	0.781956	0.524538	0.99621
839	C	0.771405	0.99442	0.971721
840	C	0.735017	0.966459	0.974369
841	N	0.713718	0.972422	0.669217
842	C	0.724274	0.502531	0.693727
843	C	0.699999	0.503166	0.718934
844	C	0.795669	0.993804	0.94647
845	N	0.817093	0.993352	0.924067
846	N	0.678563	0.503631	0.7413
847	N	0.721841	0.934036	0.953346
848	H	0.73925	0.929943	0.937799
849	N	0.773812	0.56295	0.712012
850	H	0.756391	0.567036	0.727545
851	C	0.965744	0.729388	0.690889
852	N	0.971693	0.756649	0.996044
853	C	0.501802	0.776211	0.971535
854	C	0.529764	0.767784	0.974157
855	N	0.523821	0.740536	0.669021
856	C	0.993719	0.72098	0.693541
857	C	0.993119	0.696107	0.718791
858	C	0.502423	0.801108	0.946311
859	N	0.502877	0.822996	0.923931
860	N	0.992682	0.67424	0.741197
861	N	0.562193	0.787042	0.95315
862	H	0.566292	0.808556	0.93763
863	N	0.933324	0.710122	0.711912
864	H	0.929252	0.688632	0.727465
