data_C864H504O72_2018-02-15_10:35:37
#******************************************
#
# CIF file created by Zeo++
# Zeo++ is an open source package to
# analyze microporous materials
#
#*******************************************

_cell_length_a		46.6669   
_cell_length_b		46.6669   
_cell_length_c		29.6442   
_cell_angle_alpha		90   
_cell_angle_beta		90   
_cell_angle_gamma		120   

_symmetry_space_group_name_H-M		'P1'
_symmetry_Int_Tables_number		1
_symmetry_cell_setting		Monoclinic

loop_
_symmetry_equiv_pos_as_xyz
'+x,+y,+z'

loop_
_atom_site_label
_atom_site_type_symbol
_atom_site_fract_x
_atom_site_fract_y
_atom_site_fract_z
1	C	0.026989	0.264982	0.339743
2	C	0.046233	0.30043	0.339507
3	C	0.081239	0.318438	0.338579
4	C	0.098481	0.300732	0.338562
5	C	0.081234	0.265784	0.005232
6	C	0.04623	0.24878	0.006074
7	H	0.035158	0.314449	0.339469
8	O	0.132298	0.317634	0.338508
9	H	0.035155	0.223684	0.005923
10	C	0.114121	0.24652	0.044329
11	C	0.099766	0.249275	0.003623
12	C	0.116383	0.250854	0.296281
13	H	0.108837	0.256352	0.26669
14	H	0.105068	0.24907	0.074622
15	C	0.11409	0.370803	0.044376
16	C	0.116404	0.368346	0.296369
17	C	0.099777	0.353487	0.003819
18	H	0.105036	0.359297	0.07472
19	H	0.108933	0.355175	0.26687
20	C	0.026989	0.264982	0.673076
21	C	0.046233	0.30043	0.67284
22	C	0.081239	0.318438	0.671912
23	C	0.098481	0.300732	0.671895
24	C	0.081234	0.265784	0.338562
25	C	0.04623	0.24878	0.339409
26	H	0.035158	0.314449	0.672803
27	O	0.132298	0.317634	0.671841
28	H	0.035155	0.223684	0.339257
29	C	0.114121	0.24652	0.377662
30	C	0.099766	0.249275	0.336958
31	C	0.116383	0.250854	0.629614
32	H	0.108837	0.256352	0.600023
33	H	0.105068	0.24907	0.407955
34	C	0.11409	0.370803	0.37771
35	C	0.116404	0.368346	0.629702
36	C	0.099777	0.353487	0.337151
37	H	0.105036	0.359297	0.408053
38	H	0.108933	0.355175	0.600205
39	C	0.026989	0.264982	0.006409
40	C	0.046233	0.30043	0.006173
41	C	0.081239	0.318438	0.005245
42	C	0.098481	0.300732	0.005229
43	C	0.081234	0.265784	0.671895
44	C	0.04623	0.24878	0.672742
45	H	0.035158	0.314449	0.006137
46	O	0.132298	0.317634	0.005175
47	H	0.035155	0.223684	0.67259
48	C	0.114121	0.24652	0.710996
49	C	0.099766	0.249275	0.67029
50	C	0.116383	0.250854	0.962947
51	H	0.108837	0.256352	0.933356
52	H	0.105068	0.24907	0.741288
53	C	0.11409	0.370803	0.711043
54	C	0.116404	0.368346	0.963035
55	C	0.099777	0.353487	0.670485
56	H	0.105036	0.359297	0.741386
57	H	0.108933	0.355175	0.933538
58	C	0.026987	0.76498	0.339743
59	C	0.046232	0.800428	0.339507
60	C	0.081237	0.818436	0.338579
61	C	0.09848	0.80073	0.338562
62	C	0.081234	0.765784	0.005232
63	C	0.046229	0.748778	0.006074
64	H	0.035157	0.81445	0.339469
65	O	0.132297	0.817634	0.338508
66	H	0.035153	0.723683	0.005923
67	C	0.11412	0.746519	0.044329
68	C	0.099766	0.749276	0.003623
69	C	0.116381	0.750852	0.296281
70	H	0.108835	0.75635	0.26669
71	H	0.105067	0.74907	0.074622
72	C	0.114088	0.8708	0.044376
73	C	0.116403	0.868346	0.296369
74	C	0.099775	0.853485	0.003819
75	H	0.105036	0.859297	0.07472
76	H	0.108931	0.855173	0.26687
77	C	0.026987	0.76498	0.673076
78	C	0.046232	0.800428	0.67284
79	C	0.081237	0.818436	0.671912
80	C	0.09848	0.80073	0.671895
81	C	0.081234	0.765784	0.338562
82	C	0.046229	0.748778	0.339409
83	H	0.035157	0.81445	0.672803
84	O	0.132297	0.817634	0.671841
85	H	0.035153	0.723683	0.339257
86	C	0.11412	0.746519	0.377662
87	C	0.099766	0.749276	0.336957
88	C	0.116381	0.750852	0.629614
89	H	0.108835	0.75635	0.600023
90	H	0.105067	0.74907	0.407955
91	C	0.114088	0.8708	0.37771
92	C	0.116403	0.868346	0.629702
93	C	0.099775	0.853485	0.337151
94	H	0.105036	0.859297	0.408053
95	H	0.108931	0.855173	0.600205
96	C	0.026987	0.76498	0.006409
97	C	0.046232	0.800428	0.006173
98	C	0.081237	0.818436	0.005245
99	C	0.09848	0.80073	0.005229
100	C	0.081234	0.765784	0.671895
101	C	0.046229	0.748778	0.672742
102	H	0.035157	0.81445	0.006137
103	O	0.132297	0.817634	0.005175
104	H	0.035153	0.723683	0.67259
105	C	0.11412	0.746519	0.710996
106	C	0.099766	0.749276	0.67029
107	C	0.116381	0.750852	0.962947
108	H	0.108835	0.75635	0.933356
109	H	0.105067	0.74907	0.741288
110	C	0.114088	0.8708	0.711043
111	C	0.116403	0.868346	0.963035
112	C	0.099775	0.853485	0.670485
113	H	0.105036	0.859297	0.741386
114	H	0.108931	0.855173	0.933538
115	H	0.13894	0.321014	0.03708
116	C	0.214547	0.248758	0.339382
117	C	0.196546	0.265764	0.338673
118	C	0.21425	0.300712	0.338771
119	H	0.200525	0.223664	0.339179
120	O	0.19734	0.317619	0.338778
121	H	0.194074	0.320967	0.037361
122	C	0.214278	0.416556	0.338299
123	C	0.196567	0.433794	0.005067
124	C	0.21457	0.468799	0.006149
125	O	0.197377	0.382739	0.338211
126	H	0.193999	0.376078	0.036776
127	H	0.200548	0.479872	0.006205
128	C	0.144376	0.246539	0.04439
129	C	0.146578	0.250876	0.296335
130	C	0.161496	0.249243	0.003748
131	H	0.155894	0.24905	0.074746
132	H	0.159633	0.256302	0.266755
133	C	0.144318	0.401071	0.044312
134	C	0.161508	0.415249	0.003643
135	C	0.146628	0.398493	0.296309
136	H	0.159691	0.405946	0.266718
137	H	0.155877	0.410206	0.074604
138	H	0.13894	0.321014	0.370413
139	C	0.214547	0.248758	0.672715
140	C	0.196546	0.265764	0.672007
141	C	0.21425	0.300712	0.672104
142	H	0.200525	0.223664	0.672513
143	O	0.19734	0.317619	0.672111
144	H	0.194074	0.320967	0.370693
145	C	0.214278	0.416556	0.671632
146	C	0.196567	0.433794	0.3384
147	C	0.21457	0.468799	0.339483
148	O	0.197377	0.382739	0.671544
149	H	0.193999	0.376078	0.370109
150	H	0.200548	0.479872	0.33954
151	C	0.144376	0.246539	0.377723
152	C	0.146578	0.250876	0.629668
153	C	0.161496	0.249243	0.337082
154	H	0.155894	0.24905	0.40808
155	H	0.159633	0.256302	0.60009
156	C	0.144318	0.401071	0.377646
157	C	0.161508	0.415249	0.336976
158	C	0.146628	0.398493	0.629641
159	H	0.159691	0.405946	0.60005
160	H	0.155877	0.410206	0.407938
161	H	0.13894	0.321014	0.703746
162	C	0.214547	0.248758	0.006049
163	C	0.196546	0.265764	0.00534
164	C	0.21425	0.300712	0.005438
165	H	0.200525	0.223664	0.005846
166	O	0.19734	0.317619	0.005444
167	H	0.194074	0.320967	0.704026
168	C	0.214278	0.416556	0.004965
169	C	0.196567	0.433794	0.671733
170	C	0.21457	0.468799	0.672816
171	O	0.197377	0.382739	0.004878
172	H	0.193999	0.376078	0.703443
173	H	0.200548	0.479872	0.672874
174	C	0.144376	0.246539	0.711056
175	C	0.146578	0.250876	0.963001
176	C	0.161496	0.249243	0.670414
177	H	0.155894	0.24905	0.741413
178	H	0.159633	0.256302	0.933424
179	C	0.144318	0.401071	0.710979
180	C	0.161508	0.415249	0.67031
181	C	0.146628	0.398493	0.962974
182	H	0.159691	0.405946	0.933383
183	H	0.155877	0.410206	0.741271
184	H	0.138938	0.821012	0.03708
185	C	0.214546	0.748758	0.339382
186	C	0.196546	0.765765	0.338673
187	C	0.21425	0.800712	0.338771
188	H	0.200524	0.723664	0.339179
189	O	0.19734	0.817619	0.338778
190	H	0.194075	0.820967	0.037361
191	C	0.214278	0.916556	0.338299
192	C	0.196564	0.933792	0.005067
193	C	0.214568	0.968797	0.006149
194	O	0.197376	0.882737	0.338211
195	H	0.194	0.876078	0.036776
196	H	0.200548	0.979872	0.006205
197	C	0.144376	0.746539	0.04439
198	C	0.146576	0.750874	0.296335
199	C	0.161496	0.749243	0.003748
200	H	0.155894	0.74905	0.074746
201	H	0.15963	0.7563	0.266755
202	C	0.144318	0.901072	0.044312
203	C	0.161508	0.91525	0.003643
204	C	0.146629	0.898493	0.296309
205	H	0.159689	0.905946	0.266718
206	H	0.155878	0.910207	0.074604
207	H	0.138938	0.821012	0.370413
208	C	0.214546	0.748758	0.672715
209	C	0.196546	0.765765	0.672007
210	C	0.21425	0.800712	0.672104
211	H	0.200524	0.723664	0.672513
212	O	0.19734	0.817619	0.672111
213	H	0.194075	0.820967	0.370693
214	C	0.214278	0.916556	0.671632
215	C	0.196564	0.933792	0.3384
216	C	0.214568	0.968797	0.339483
217	O	0.197376	0.882737	0.671544
218	H	0.194	0.876078	0.370109
219	H	0.200548	0.979872	0.33954
220	C	0.144376	0.746539	0.377723
221	C	0.146576	0.750874	0.629668
222	C	0.161496	0.749243	0.337082
223	H	0.155894	0.74905	0.40808
224	H	0.15963	0.7563	0.60009
225	C	0.144318	0.901072	0.377646
226	C	0.161508	0.91525	0.336976
227	C	0.146629	0.898493	0.629641
228	H	0.159689	0.905946	0.60005
229	H	0.155878	0.910207	0.407938
230	H	0.138938	0.821012	0.703746
231	C	0.214546	0.748758	0.006049
232	C	0.196546	0.765765	0.00534
233	C	0.21425	0.800712	0.005438
234	H	0.200524	0.723664	0.005846
235	O	0.19734	0.817619	0.005444
236	H	0.194075	0.820967	0.704026
237	C	0.214278	0.916556	0.004969
238	C	0.196564	0.933792	0.671733
239	C	0.214568	0.968797	0.672816
240	O	0.197376	0.882737	0.004878
241	H	0.194	0.876078	0.703443
242	H	0.200548	0.979872	0.672874
243	C	0.144376	0.746539	0.711056
244	C	0.146576	0.750874	0.963001
245	C	0.161496	0.749243	0.670414
246	H	0.155894	0.74905	0.741413
247	H	0.15963	0.7563	0.933424
248	C	0.144318	0.901072	0.710979
249	C	0.161508	0.91525	0.67031
250	C	0.146629	0.898493	0.962974
251	H	0.159689	0.905946	0.933383
252	H	0.155878	0.910207	0.741271
253	C	0.249991	0.26496	0.339675
254	C	0.249199	0.318413	0.005347
255	C	0.266197	0.300405	0.006109
256	C	0.267945	0.246991	0.339655
257	C	0.25174	0.211545	0.006026
258	C	0.26874	0.193539	0.005198
259	H	0.226645	0.197525	0.005907
260	C	0.250017	0.488047	0.339716
261	C	0.266223	0.468809	0.339351
262	C	0.249226	0.433804	0.3384
263	C	0.267982	0.023973	0.339753
264	C	0.268782	0.078223	0.338626
265	C	0.251779	0.043215	0.339412
266	H	0.226684	0.032139	0.339179
267	C	0.2685	0.400967	0.044236
268	C	0.268565	0.370756	0.044425
269	C	0.265719	0.35346	0.00392
270	C	0.263987	0.368308	0.296451
271	C	0.264093	0.39855	0.29623
272	C	0.265735	0.415269	0.003498
273	H	0.258477	0.355207	0.266902
274	H	0.26613	0.359327	0.074831
275	H	0.266176	0.410194	0.074517
276	H	0.258466	0.405965	0.266631
277	C	0.249554	0.11117	0.044301
278	C	0.249493	0.141387	0.044338
279	C	0.252223	0.158485	0.003657
280	C	0.25382	0.143529	0.296255
281	C	0.253887	0.113377	0.296289
282	C	0.252276	0.096758	0.00364
283	H	0.259301	0.156592	0.266681
284	H	0.252051	0.152977	0.074644
285	H	0.252063	0.102146	0.074645
286	H	0.259328	0.105786	0.266691
287	C	0.249991	0.26496	0.673008
288	C	0.249199	0.318413	0.33868
289	C	0.266197	0.300405	0.339442
290	C	0.267945	0.246991	0.672988
291	C	0.25174	0.211545	0.339358
292	C	0.26874	0.193539	0.338532
293	H	0.226645	0.197525	0.33924
294	C	0.250017	0.488047	0.673049
295	C	0.266223	0.468809	0.672685
296	C	0.249226	0.433804	0.671733
297	C	0.267982	0.023973	0.673086
298	C	0.268782	0.078223	0.671959
299	C	0.251779	0.043215	0.672745
300	H	0.226684	0.032139	0.672513
301	C	0.2685	0.400967	0.377568
302	C	0.268565	0.370756	0.377757
303	C	0.265719	0.35346	0.337251
304	C	0.263987	0.368308	0.629782
305	C	0.264093	0.39855	0.629563
306	C	0.265735	0.415269	0.336832
307	H	0.258477	0.355207	0.600235
308	H	0.26613	0.359327	0.408164
309	H	0.266176	0.410194	0.40785
310	H	0.258466	0.405965	0.599966
311	C	0.249554	0.11117	0.377635
312	C	0.249493	0.141387	0.377672
313	C	0.252223	0.158485	0.336991
314	C	0.25382	0.143529	0.629587
315	C	0.253887	0.113377	0.629621
316	C	0.252276	0.096758	0.336971
317	H	0.259301	0.156592	0.600013
318	H	0.252051	0.152977	0.407979
319	H	0.252063	0.102146	0.407979
320	H	0.259328	0.105786	0.600023
321	C	0.249991	0.26496	0.006341
322	C	0.249199	0.318413	0.672013
323	C	0.266197	0.300405	0.672776
324	C	0.267945	0.246991	0.00632
325	C	0.25174	0.211545	0.672691
326	C	0.26874	0.193539	0.671865
327	H	0.226645	0.197525	0.672573
328	C	0.250017	0.488047	0.006382
329	C	0.266223	0.468809	0.006019
330	C	0.249226	0.433804	0.005067
331	C	0.267982	0.023973	0.00642
332	C	0.268782	0.078223	0.005293
333	C	0.251779	0.043215	0.006077
334	H	0.226684	0.032139	0.005846
335	C	0.2685	0.400967	0.710901
336	C	0.268565	0.370756	0.71109
337	C	0.265719	0.35346	0.670586
338	C	0.263987	0.368308	0.963119
339	C	0.264093	0.39855	0.962897
340	C	0.265735	0.415269	0.670165
341	H	0.258477	0.355207	0.933569
342	H	0.26613	0.359327	0.741497
343	H	0.266176	0.410194	0.741184
344	H	0.258466	0.405965	0.933299
345	C	0.249554	0.11117	0.710969
346	C	0.249493	0.141387	0.711006
347	C	0.252223	0.158485	0.670323
348	C	0.25382	0.143529	0.962924
349	C	0.253887	0.113377	0.962954
350	C	0.252276	0.096758	0.670306
351	H	0.259301	0.156592	0.933346
352	H	0.252051	0.152977	0.741312
353	H	0.252063	0.102146	0.741312
354	H	0.259328	0.105786	0.933356
355	C	0.249989	0.764958	0.339675
356	C	0.249198	0.818414	0.005347
357	C	0.266196	0.800405	0.006109
358	C	0.267944	0.746989	0.339655
359	C	0.251739	0.711544	0.006026
360	C	0.26874	0.693539	0.005198
361	H	0.226644	0.697525	0.005907
362	C	0.250015	0.988045	0.339716
363	C	0.266222	0.968807	0.339351
364	C	0.249223	0.933802	0.3384
365	C	0.26798	0.523972	0.339753
366	C	0.268781	0.578222	0.338626
367	C	0.251778	0.543215	0.339412
368	H	0.226682	0.532137	0.339179
369	C	0.268498	0.900965	0.044236
370	C	0.268564	0.870756	0.044425
371	C	0.265718	0.85346	0.00392
372	C	0.263987	0.868309	0.296451
373	C	0.264092	0.89855	0.29623
374	C	0.265734	0.915269	0.003498
375	H	0.258477	0.855207	0.266902
376	H	0.26613	0.859327	0.074831
377	H	0.266176	0.910194	0.074517
378	H	0.258465	0.905966	0.266631
379	C	0.249553	0.61117	0.044301
380	C	0.249492	0.641387	0.044338
381	C	0.252223	0.658485	0.003657
382	C	0.25382	0.64353	0.296255
383	C	0.253887	0.613377	0.296289
384	C	0.252275	0.596757	0.00364
385	H	0.2593	0.656592	0.266681
386	H	0.25205	0.652977	0.074644
387	H	0.252063	0.602146	0.074645
388	H	0.259327	0.605786	0.266691
389	C	0.249989	0.764958	0.673008
390	C	0.249198	0.818414	0.33868
391	C	0.266196	0.800405	0.339442
392	C	0.267944	0.746989	0.672988
393	C	0.251739	0.711544	0.339358
394	C	0.26874	0.693539	0.338532
395	H	0.226644	0.697525	0.33924
396	C	0.250015	0.988045	0.673049
397	C	0.266222	0.968807	0.672685
398	C	0.249223	0.933802	0.671733
399	C	0.26798	0.523972	0.673086
400	C	0.268781	0.578222	0.671959
401	C	0.251778	0.543215	0.672745
402	H	0.226682	0.532137	0.672513
403	C	0.268498	0.900965	0.377568
404	C	0.268564	0.870756	0.377757
405	C	0.265718	0.85346	0.337251
406	C	0.263987	0.868309	0.629786
407	C	0.264092	0.89855	0.629563
408	C	0.265734	0.915269	0.336832
409	H	0.258477	0.855207	0.600235
410	H	0.26613	0.859327	0.408164
411	H	0.266176	0.910194	0.40785
412	H	0.258465	0.905966	0.599966
413	C	0.249553	0.61117	0.377635
414	C	0.249492	0.641387	0.377672
415	C	0.252223	0.658485	0.336991
416	C	0.25382	0.64353	0.629587
417	C	0.253887	0.613377	0.629621
418	C	0.252275	0.596757	0.336971
419	H	0.2593	0.656592	0.600013
420	H	0.25205	0.652977	0.407979
421	H	0.252063	0.602146	0.407979
422	H	0.259327	0.605786	0.600023
423	C	0.249989	0.764958	0.006341
424	C	0.249198	0.818414	0.672013
425	C	0.266196	0.800405	0.672776
426	C	0.267944	0.746989	0.00632
427	C	0.251739	0.711544	0.672691
428	C	0.26874	0.693539	0.671865
429	H	0.226644	0.697525	0.672573
430	C	0.250015	0.988045	0.006382
431	C	0.266222	0.968807	0.006019
432	C	0.249223	0.933802	0.005067
433	C	0.26798	0.523972	0.00642
434	C	0.268781	0.578222	0.005293
435	C	0.251778	0.543215	0.006077
436	H	0.226682	0.532137	0.005846
437	C	0.268498	0.900965	0.710901
438	C	0.268564	0.870756	0.71109
439	C	0.265718	0.85346	0.670586
440	C	0.263987	0.868309	0.963119
441	C	0.264092	0.89855	0.962897
442	C	0.265734	0.915269	0.670165
443	H	0.258477	0.855207	0.933569
444	H	0.26613	0.859327	0.741497
445	H	0.266176	0.910194	0.741184
446	H	0.258465	0.905966	0.933299
447	C	0.249553	0.61117	0.710969
448	C	0.249492	0.641387	0.711006
449	C	0.252223	0.658485	0.670323
450	C	0.25382	0.64353	0.962924
451	C	0.253887	0.613377	0.962954
452	C	0.252275	0.596757	0.670306
453	H	0.2593	0.656592	0.933346
454	H	0.25205	0.652977	0.741312
455	H	0.252063	0.602146	0.741312
456	H	0.259327	0.605786	0.933356
457	C	0.491063	0.247011	0.339739
458	C	0.471825	0.263216	0.00614
459	C	0.436823	0.246218	0.005185
460	C	0.419573	0.211271	0.338488
461	C	0.436809	0.193561	0.338548
462	C	0.471819	0.211564	0.339429
463	O	0.385754	0.194367	0.338397
464	H	0.482891	0.197542	0.339328
465	H	0.379093	0.191098	0.036961
466	H	0.482902	0.288313	0.00609
467	C	0.303688	0.211242	0.338535
468	C	0.321389	0.24619	0.338521
469	C	0.303388	0.263193	0.339405
470	O	0.320596	0.194331	0.338498
471	H	0.31741	0.288288	0.339345
472	H	0.323973	0.191075	0.037075
473	H	0.291292	0.314425	0.006003
474	H	0.291318	0.479884	0.339247
475	C	0.303428	0.043218	0.006202
476	C	0.321437	0.078225	0.005343
477	C	0.303731	0.095468	0.33866
478	O	0.320638	0.129286	0.338579
479	H	0.323983	0.135943	0.037145
480	H	0.317448	0.032144	0.006167
481	C	0.373717	0.265663	0.044302
482	C	0.403987	0.26571	0.044314
483	C	0.4183	0.262728	0.003738
484	C	0.401608	0.261009	0.296379
485	C	0.371391	0.260952	0.296401
486	C	0.356424	0.262701	0.003738
487	H	0.409002	0.255288	0.266829
488	H	0.413061	0.263265	0.074645
489	H	0.362248	0.263258	0.074667
490	H	0.358306	0.255283	0.266828
491	C	0.403884	0.141438	0.044341
492	C	0.373682	0.111153	0.044476
493	C	0.356493	0.096759	0.003886
494	C	0.371361	0.113322	0.296439
495	C	0.401604	0.14346	0.29631
496	C	0.418259	0.158517	0.00363
497	H	0.358287	0.105739	0.266869
498	H	0.362204	0.102139	0.074851
499	H	0.413072	0.152981	0.074638
500	H	0.409067	0.156518	0.266727
501	C	0.491063	0.247011	0.673073
502	C	0.471825	0.263216	0.339473
503	C	0.436823	0.246218	0.338518
504	C	0.419573	0.211271	0.671821
505	C	0.436809	0.193561	0.671882
506	C	0.471819	0.211564	0.672762
507	O	0.385754	0.194367	0.67173
508	H	0.482891	0.197542	0.672661
509	H	0.379093	0.191098	0.370295
510	H	0.482902	0.288313	0.339422
511	C	0.303688	0.211242	0.671868
512	C	0.321389	0.24619	0.671855
513	C	0.303388	0.263193	0.672739
514	O	0.320596	0.194331	0.671831
515	H	0.31741	0.288288	0.672678
516	H	0.323973	0.191075	0.37041
517	H	0.291292	0.314425	0.339334
518	H	0.291318	0.479884	0.67258
519	C	0.303428	0.043218	0.339534
520	C	0.321437	0.078225	0.338677
521	C	0.303731	0.095468	0.671993
522	O	0.320638	0.129286	0.671912
523	H	0.323983	0.135943	0.370477
524	H	0.317448	0.032144	0.3395
525	C	0.373717	0.265663	0.377635
526	C	0.403987	0.26571	0.377649
527	C	0.4183	0.262728	0.33707
528	C	0.401608	0.261009	0.629712
529	C	0.371391	0.260952	0.629735
530	C	0.356424	0.262701	0.337072
531	H	0.409002	0.255288	0.600161
532	H	0.413061	0.263265	0.407979
533	H	0.362248	0.263258	0.407999
534	H	0.358306	0.255283	0.600161
535	C	0.403884	0.141438	0.377672
536	C	0.373682	0.111153	0.377811
537	C	0.356493	0.096759	0.33722
538	C	0.371361	0.113322	0.629772
539	C	0.401604	0.14346	0.629644
540	C	0.418259	0.158517	0.336962
541	H	0.358287	0.105739	0.600202
542	H	0.362204	0.102139	0.408184
543	H	0.413072	0.152981	0.407972
544	H	0.409067	0.156518	0.60006
545	C	0.491063	0.247011	0.006404
546	C	0.471825	0.263216	0.672806
547	C	0.436823	0.246218	0.671851
548	C	0.419573	0.211271	0.005154
549	C	0.436809	0.193561	0.005215
550	C	0.471819	0.211564	0.006096
551	O	0.385754	0.194367	0.005063
552	H	0.482891	0.197542	0.005994
553	H	0.379093	0.191098	0.703628
554	H	0.482902	0.288313	0.672755
555	C	0.303688	0.211242	0.005205
556	C	0.321389	0.24619	0.005188
557	C	0.303388	0.263193	0.006073
558	O	0.320596	0.194331	0.005164
559	H	0.31741	0.288288	0.00601
560	H	0.323973	0.191075	0.703743
561	H	0.291292	0.314425	0.672671
562	H	0.291318	0.479884	0.005913
563	C	0.303428	0.043218	0.672867
564	C	0.321437	0.078225	0.67201
565	C	0.303731	0.095468	0.005326
566	O	0.320638	0.129286	0.005245
567	H	0.323983	0.135943	0.70381
568	H	0.317448	0.032144	0.672833
569	C	0.373717	0.265663	0.710969
570	C	0.403987	0.26571	0.710982
571	C	0.4183	0.262728	0.670404
572	C	0.401608	0.261009	0.963045
573	C	0.371391	0.260952	0.963069
574	C	0.356424	0.262701	0.670404
575	H	0.409002	0.255288	0.933494
576	H	0.413061	0.263265	0.741312
577	H	0.362248	0.263258	0.741332
578	H	0.358306	0.255283	0.933494
579	C	0.403884	0.141438	0.711006
580	C	0.373682	0.111153	0.711144
581	C	0.356493	0.096759	0.670553
582	C	0.371361	0.113322	0.963106
583	C	0.401604	0.14346	0.962977
584	C	0.418259	0.158517	0.670296
585	H	0.358287	0.105739	0.933535
586	H	0.362204	0.102139	0.741518
587	H	0.413072	0.152981	0.741305
588	H	0.409067	0.156518	0.933393
589	C	0.491064	0.747012	0.339739
590	C	0.471826	0.763216	0.00614
591	C	0.436823	0.746217	0.005185
592	C	0.419571	0.71127	0.338488
593	C	0.43681	0.693561	0.338548
594	C	0.471818	0.711564	0.339429
595	O	0.385752	0.694365	0.338397
596	H	0.48289	0.697542	0.339328
597	H	0.379091	0.691099	0.036961
598	H	0.482901	0.788311	0.00609
599	C	0.303688	0.711242	0.338535
600	C	0.321388	0.74619	0.338521
601	C	0.303388	0.763194	0.339405
602	O	0.320594	0.69433	0.338498
603	H	0.31741	0.788289	0.339345
604	H	0.323972	0.691074	0.037075
605	H	0.291291	0.814423	0.006003
606	H	0.291318	0.979884	0.339247
607	C	0.303427	0.543217	0.006202
608	C	0.321435	0.578224	0.005343
609	C	0.30373	0.595468	0.33866
610	O	0.320637	0.629285	0.338579
611	H	0.323984	0.635943	0.037145
612	H	0.317447	0.532142	0.006167
613	C	0.373716	0.765661	0.044301
614	C	0.403986	0.76571	0.044314
615	C	0.418299	0.762729	0.003738
616	C	0.401609	0.761009	0.296379
617	C	0.371391	0.760952	0.296401
618	C	0.356423	0.762701	0.003738
619	H	0.409	0.755288	0.266829
620	H	0.413061	0.763266	0.074645
621	H	0.362248	0.763258	0.074667
622	H	0.358306	0.755283	0.266828
623	C	0.403885	0.641439	0.044341
624	C	0.373681	0.611153	0.044476
625	C	0.356492	0.596757	0.003886
626	C	0.37136	0.61332	0.296439
627	C	0.401603	0.64346	0.29631
628	C	0.418259	0.658517	0.00363
629	H	0.358286	0.605739	0.266869
630	H	0.362204	0.602139	0.074851
631	H	0.41307	0.652982	0.074638
632	H	0.409067	0.656517	0.266727
633	C	0.491064	0.747012	0.673073
634	C	0.471826	0.763216	0.339473
635	C	0.436823	0.746217	0.338518
636	C	0.419571	0.71127	0.671821
637	C	0.43681	0.693561	0.671882
638	C	0.471818	0.711564	0.672762
639	O	0.385752	0.694365	0.67173
640	H	0.48289	0.697542	0.672661
641	H	0.379091	0.691099	0.370295
642	H	0.482901	0.788311	0.339422
643	C	0.303688	0.711242	0.671868
644	C	0.321388	0.74619	0.671855
645	C	0.303388	0.763194	0.672739
646	O	0.320594	0.69433	0.671831
647	H	0.31741	0.788289	0.672678
648	H	0.323972	0.691074	0.37041
649	H	0.291291	0.814423	0.339338
650	H	0.291318	0.979884	0.67258
651	C	0.303427	0.543217	0.339534
652	C	0.321435	0.578224	0.338677
653	C	0.30373	0.595468	0.671993
654	O	0.320637	0.629285	0.671912
655	H	0.323984	0.635943	0.370477
656	H	0.317447	0.532142	0.3395
657	C	0.373716	0.765661	0.377635
658	C	0.403986	0.76571	0.377649
659	C	0.418299	0.762729	0.33707
660	C	0.401609	0.761009	0.629712
661	C	0.371391	0.760952	0.629735
662	C	0.356423	0.762701	0.337072
663	H	0.409	0.755288	0.600161
664	H	0.413061	0.763266	0.407979
665	H	0.362248	0.763258	0.407999
666	H	0.358306	0.755283	0.600161
667	C	0.403885	0.641439	0.377672
668	C	0.373681	0.611153	0.377811
669	C	0.356492	0.596757	0.33722
670	C	0.37136	0.61332	0.629772
671	C	0.401603	0.64346	0.629644
672	C	0.418259	0.658517	0.336962
673	H	0.358286	0.605739	0.600202
674	H	0.362204	0.602139	0.408184
675	H	0.41307	0.652982	0.407972
676	H	0.409067	0.656517	0.60006
677	C	0.491064	0.747012	0.006404
678	C	0.471826	0.763216	0.672806
679	C	0.436823	0.746217	0.671851
680	C	0.419571	0.71127	0.005154
681	C	0.43681	0.693561	0.005215
682	C	0.471818	0.711564	0.006096
683	O	0.385752	0.694365	0.005063
684	H	0.48289	0.697542	0.005994
685	H	0.379091	0.691099	0.703628
686	H	0.482901	0.788311	0.672755
687	C	0.303688	0.711242	0.005202
688	C	0.321388	0.74619	0.005188
689	C	0.303388	0.763194	0.006073
690	O	0.320594	0.69433	0.005164
691	H	0.31741	0.788289	0.00601
692	H	0.323972	0.691074	0.703743
693	H	0.291291	0.814423	0.672671
694	H	0.291318	0.979884	0.005913
695	C	0.303427	0.543217	0.672867
696	C	0.321435	0.578224	0.67201
697	C	0.30373	0.595468	0.005326
698	O	0.320637	0.629285	0.005245
699	H	0.323984	0.635943	0.70381
700	H	0.317447	0.532142	0.672833
701	C	0.373716	0.765661	0.710969
702	C	0.403986	0.76571	0.710982
703	C	0.418299	0.762729	0.670404
704	C	0.401609	0.761009	0.963045
705	C	0.371391	0.760952	0.963069
706	C	0.356423	0.762701	0.670404
707	H	0.409	0.755288	0.933494
708	H	0.413061	0.763266	0.741312
709	H	0.362248	0.763258	0.741332
710	H	0.358306	0.755283	0.933494
711	C	0.403885	0.641439	0.711006
712	C	0.373681	0.611153	0.711144
713	C	0.356492	0.596757	0.670553
714	C	0.37136	0.61332	0.963106
715	C	0.401603	0.64346	0.962977
716	C	0.418259	0.658517	0.670296
717	H	0.358286	0.605739	0.933535
718	H	0.362204	0.602139	0.741518
719	H	0.41307	0.652982	0.741305
720	H	0.409067	0.656517	0.933393
721	C	0.526989	0.264982	0.339743
722	C	0.546232	0.30043	0.339507
723	C	0.581239	0.318438	0.338579
724	C	0.598482	0.300732	0.338562
725	C	0.581235	0.265784	0.005232
726	C	0.546231	0.24878	0.006074
727	H	0.535158	0.314449	0.339469
728	O	0.632298	0.317634	0.338508
729	C	0.991065	0.247011	0.339739
730	C	0.971826	0.263216	0.00614
731	C	0.936824	0.246218	0.005185
732	C	0.919572	0.211271	0.338488
733	C	0.93681	0.193561	0.338548
734	C	0.971817	0.211564	0.339429
735	O	0.885753	0.194367	0.338397
736	H	0.98289	0.197542	0.339328
737	H	0.63894	0.321014	0.03708
738	H	0.879092	0.191098	0.036961
739	H	0.535155	0.223684	0.005923
740	H	0.982903	0.288313	0.00609
741	C	0.74999	0.26496	0.339675
742	C	0.714547	0.248758	0.339382
743	C	0.696547	0.265764	0.338673
744	C	0.71425	0.300712	0.338771
745	C	0.749198	0.318413	0.005347
746	C	0.766198	0.300405	0.006109
747	H	0.700525	0.223664	0.339179
748	O	0.697341	0.317619	0.338778
749	C	0.767946	0.246991	0.339655
750	C	0.75174	0.211545	0.006026
751	C	0.76874	0.193539	0.005198
752	C	0.803687	0.211242	0.338535
753	C	0.821388	0.24619	0.338521
754	C	0.803387	0.263193	0.339405
755	O	0.820595	0.194331	0.338498
756	H	0.817411	0.288288	0.339345
757	H	0.694073	0.320967	0.037361
758	H	0.823972	0.191075	0.037075
759	H	0.791293	0.314425	0.006003
760	H	0.726644	0.197525	0.005907
761	C	0.750018	0.488047	0.339716
762	C	0.766224	0.468809	0.339351
763	C	0.749225	0.433804	0.3384
764	C	0.714278	0.416556	0.338299
765	C	0.696566	0.433794	0.005067
766	C	0.71457	0.468799	0.006149
767	H	0.791317	0.479884	0.339247
768	O	0.697376	0.382739	0.338211
769	C	0.767981	0.023973	0.339753
770	C	0.803429	0.043218	0.006202
771	C	0.821436	0.078225	0.005343
772	C	0.80373	0.095468	0.33866
773	C	0.768783	0.078223	0.338626
774	C	0.751778	0.043215	0.339412
775	O	0.820637	0.129286	0.338579
776	H	0.726684	0.032139	0.339179
777	H	0.693999	0.376078	0.036776
778	H	0.823985	0.135943	0.037145
779	H	0.700549	0.479872	0.006205
780	H	0.817449	0.032144	0.006167
781	C	0.644377	0.246539	0.04439
782	C	0.614122	0.24652	0.044329
783	C	0.599766	0.249275	0.003623
784	C	0.616383	0.250854	0.296281
785	C	0.646578	0.250876	0.296335
786	C	0.661496	0.249243	0.003748
787	H	0.608838	0.256352	0.26669
788	H	0.605068	0.24907	0.074622
789	H	0.655895	0.24905	0.074746
790	H	0.659633	0.256302	0.266755
791	C	0.7685	0.400967	0.044236
792	C	0.768564	0.370756	0.044425
793	C	0.765719	0.35346	0.00392
794	C	0.763987	0.368308	0.296451
795	C	0.764092	0.39855	0.29623
796	C	0.765734	0.415269	0.003498
797	H	0.758477	0.355207	0.266902
798	H	0.76613	0.359327	0.074831
799	H	0.766175	0.410194	0.074517
800	H	0.758466	0.405965	0.266631
801	C	0.61409	0.370803	0.044376
802	C	0.644319	0.401071	0.044312
803	C	0.661507	0.415249	0.003643
804	C	0.646627	0.398493	0.296309
805	C	0.616404	0.368346	0.296369
806	C	0.599777	0.353487	0.003819
807	H	0.65969	0.405946	0.266718
808	H	0.655876	0.410206	0.074604
809	H	0.605035	0.359297	0.07472
810	H	0.608933	0.355175	0.26687
811	C	0.873718	0.265663	0.044302
812	C	0.903986	0.26571	0.044314
813	C	0.918298	0.262728	0.003738
814	C	0.901609	0.261009	0.296379
815	C	0.871393	0.260952	0.296401
816	C	0.856423	0.262701	0.003738
817	H	0.909	0.255288	0.266829
818	H	0.913062	0.263265	0.074645
819	H	0.862247	0.263258	0.074667
820	H	0.858307	0.255283	0.266828
821	C	0.749554	0.11117	0.044301
822	C	0.749494	0.141387	0.044338
823	C	0.752223	0.158485	0.003657
824	C	0.75382	0.143529	0.296255
825	C	0.753887	0.113377	0.296289
826	C	0.752276	0.096758	0.00364
827	H	0.759301	0.156592	0.266681
828	H	0.752051	0.152977	0.074644
829	H	0.752062	0.102146	0.074645
830	H	0.759327	0.105786	0.266691
831	C	0.903885	0.141438	0.044341
832	C	0.873681	0.111153	0.044476
833	C	0.856494	0.096759	0.003886
834	C	0.87136	0.113322	0.296439
835	C	0.901603	0.14346	0.29631
836	C	0.91826	0.158517	0.00363
837	H	0.858286	0.105739	0.266869
838	H	0.862203	0.102139	0.074851
839	H	0.913071	0.152981	0.074638
840	H	0.909068	0.156518	0.266727
841	C	0.526989	0.264982	0.673076
842	C	0.546232	0.30043	0.67284
843	C	0.581239	0.318438	0.671912
844	C	0.598482	0.300732	0.671895
845	C	0.581235	0.265784	0.338562
846	C	0.546231	0.24878	0.339409
847	H	0.535158	0.314449	0.672803
848	O	0.632298	0.317634	0.671841
849	C	0.991065	0.247011	0.673073
850	C	0.971826	0.263216	0.339473
851	C	0.936824	0.246218	0.338518
852	C	0.919572	0.211271	0.671821
853	C	0.93681	0.193561	0.671882
854	C	0.971817	0.211564	0.672762
855	O	0.885753	0.194367	0.67173
856	H	0.98289	0.197542	0.672661
857	H	0.63894	0.321014	0.370413
858	H	0.879092	0.191098	0.370295
859	H	0.535155	0.223684	0.339257
860	H	0.982903	0.288313	0.339422
861	C	0.74999	0.26496	0.673008
862	C	0.714547	0.248758	0.672715
863	C	0.696547	0.265764	0.672007
864	C	0.71425	0.300712	0.672104
865	C	0.749198	0.318413	0.33868
866	C	0.766198	0.300405	0.339442
867	H	0.700525	0.223664	0.672513
868	O	0.697341	0.317619	0.672111
869	C	0.767946	0.246991	0.672988
870	C	0.75174	0.211545	0.339358
871	C	0.76874	0.193539	0.338532
872	C	0.803687	0.211242	0.671868
873	C	0.821388	0.24619	0.671855
874	C	0.803387	0.263193	0.672739
875	O	0.820595	0.194331	0.671831
876	H	0.817411	0.288288	0.672678
877	H	0.694073	0.320967	0.370693
878	H	0.823972	0.191075	0.37041
879	H	0.791293	0.314425	0.339334
880	H	0.726644	0.197525	0.33924
881	C	0.750018	0.488047	0.673049
882	C	0.766224	0.468809	0.672685
883	C	0.749225	0.433804	0.671733
884	C	0.714278	0.416556	0.671632
885	C	0.696566	0.433794	0.3384
886	C	0.71457	0.468799	0.339483
887	H	0.791317	0.479884	0.67258
888	O	0.697376	0.382739	0.671544
889	C	0.767981	0.023973	0.673086
890	C	0.803429	0.043218	0.339534
891	C	0.821436	0.078225	0.338677
892	C	0.80373	0.095468	0.671993
893	C	0.768783	0.078223	0.671959
894	C	0.751778	0.043215	0.672745
895	O	0.820637	0.129286	0.671912
896	H	0.726684	0.032139	0.672513
897	H	0.693999	0.376078	0.370109
898	H	0.823985	0.135943	0.370477
899	H	0.700549	0.479872	0.33954
900	H	0.817449	0.032144	0.3395
901	C	0.644377	0.246539	0.377723
902	C	0.614122	0.24652	0.377662
903	C	0.599766	0.249275	0.336958
904	C	0.616383	0.250854	0.629614
905	C	0.646578	0.250876	0.629668
906	C	0.661496	0.249243	0.337082
907	H	0.608838	0.256352	0.600023
908	H	0.605068	0.24907	0.407955
909	H	0.655895	0.24905	0.40808
910	H	0.659633	0.256302	0.60009
911	C	0.7685	0.400967	0.377568
912	C	0.768564	0.370756	0.377757
913	C	0.765719	0.35346	0.337251
914	C	0.763987	0.368308	0.629782
915	C	0.764092	0.39855	0.629563
916	C	0.765734	0.415269	0.336832
917	H	0.758477	0.355207	0.600235
918	H	0.76613	0.359327	0.408164
919	H	0.766175	0.410194	0.40785
920	H	0.758466	0.405965	0.599966
921	C	0.61409	0.370803	0.37771
922	C	0.644319	0.401071	0.377646
923	C	0.661507	0.415249	0.336976
924	C	0.646627	0.398493	0.629641
925	C	0.616404	0.368346	0.629702
926	C	0.599777	0.353487	0.337151
927	H	0.65969	0.405946	0.60005
928	H	0.655876	0.410206	0.407938
929	H	0.605035	0.359297	0.408053
930	H	0.608933	0.355175	0.600205
931	C	0.873718	0.265663	0.377635
932	C	0.903986	0.26571	0.377649
933	C	0.918298	0.262728	0.33707
934	C	0.901609	0.261009	0.629712
935	C	0.871393	0.260952	0.629735
936	C	0.856423	0.262701	0.337072
937	H	0.909	0.255288	0.600161
938	H	0.913062	0.263265	0.407979
939	H	0.862247	0.263258	0.407999
940	H	0.858307	0.255283	0.600161
941	C	0.749554	0.11117	0.377635
942	C	0.749494	0.141387	0.377672
943	C	0.752223	0.158485	0.336991
944	C	0.75382	0.143529	0.629587
945	C	0.753887	0.113377	0.629621
946	C	0.752276	0.096758	0.336971
947	H	0.759301	0.156592	0.600013
948	H	0.752051	0.152977	0.407979
949	H	0.752062	0.102146	0.407979
950	H	0.759327	0.105786	0.600023
951	C	0.903885	0.141438	0.377672
952	C	0.873681	0.111153	0.377811
953	C	0.856494	0.096759	0.33722
954	C	0.87136	0.113322	0.629772
955	C	0.901603	0.14346	0.629644
956	C	0.91826	0.158517	0.336962
957	H	0.858286	0.105739	0.600202
958	H	0.862203	0.102139	0.408184
959	H	0.913071	0.152981	0.407972
960	H	0.909068	0.156518	0.60006
961	C	0.526989	0.264982	0.006409
962	C	0.546232	0.30043	0.006173
963	C	0.581239	0.318438	0.005245
964	C	0.598482	0.300732	0.005229
965	C	0.581235	0.265784	0.671895
966	C	0.546231	0.24878	0.672742
967	H	0.535158	0.314449	0.006137
968	O	0.632298	0.317634	0.005175
969	C	0.991065	0.247011	0.006404
970	C	0.971826	0.263216	0.672806
971	C	0.936824	0.246218	0.671851
972	C	0.919572	0.211271	0.005154
973	C	0.93681	0.193561	0.005215
974	C	0.971817	0.211564	0.006096
975	O	0.885753	0.194367	0.005063
976	H	0.98289	0.197542	0.005994
977	H	0.63894	0.321014	0.703746
978	H	0.879092	0.191098	0.703628
979	H	0.535155	0.223684	0.67259
980	H	0.982903	0.288313	0.672755
981	C	0.74999	0.26496	0.006341
982	C	0.714547	0.248758	0.006049
983	C	0.696547	0.265764	0.00534
984	C	0.71425	0.300712	0.005438
985	C	0.749198	0.318413	0.672013
986	C	0.766198	0.300405	0.672776
987	H	0.700525	0.223664	0.005846
988	O	0.697341	0.317619	0.005444
989	C	0.767946	0.246991	0.00632
990	C	0.75174	0.211545	0.672691
991	C	0.76874	0.193539	0.671865
992	C	0.803687	0.211242	0.005205
993	C	0.821388	0.24619	0.005188
994	C	0.803387	0.263193	0.006073
995	O	0.820595	0.194331	0.005164
996	H	0.817411	0.288288	0.00601
997	H	0.694073	0.320967	0.704026
998	H	0.823972	0.191075	0.703743
999	H	0.791293	0.314425	0.672671
1000	H	0.726644	0.197525	0.672573
1001	C	0.750018	0.488047	0.006382
1002	C	0.766224	0.468809	0.006019
1003	C	0.749225	0.433804	0.005067
1004	C	0.714278	0.416556	0.004965
1005	C	0.696566	0.433794	0.671733
1006	C	0.71457	0.468799	0.672816
1007	H	0.791317	0.479884	0.005913
1008	O	0.697376	0.382739	0.004878
1009	C	0.767981	0.023973	0.00642
1010	C	0.803429	0.043218	0.672867
1011	C	0.821436	0.078225	0.67201
1012	C	0.80373	0.095468	0.005326
1013	C	0.768783	0.078223	0.005293
1014	C	0.751778	0.043215	0.006077
1015	O	0.820637	0.129286	0.005245
1016	H	0.726684	0.032139	0.005846
1017	H	0.693999	0.376078	0.703443
1018	H	0.823985	0.135943	0.70381
1019	H	0.700549	0.479872	0.672874
1020	H	0.817449	0.032144	0.672833
1021	C	0.644377	0.246539	0.711056
1022	C	0.614122	0.24652	0.710996
1023	C	0.599766	0.249275	0.67029
1024	C	0.616383	0.250854	0.962947
1025	C	0.646578	0.250876	0.963001
1026	C	0.661496	0.249243	0.670414
1027	H	0.608838	0.256352	0.933356
1028	H	0.605068	0.24907	0.741288
1029	H	0.655895	0.24905	0.741413
1030	H	0.659633	0.256302	0.933424
1031	C	0.7685	0.400967	0.710901
1032	C	0.768564	0.370756	0.71109
1033	C	0.765719	0.35346	0.670586
1034	C	0.763987	0.368308	0.963119
1035	C	0.764092	0.39855	0.962897
1036	C	0.765734	0.415269	0.670165
1037	H	0.758477	0.355207	0.933569
1038	H	0.76613	0.359327	0.741497
1039	H	0.766175	0.410194	0.741184
1040	H	0.758466	0.405965	0.933299
1041	C	0.61409	0.370803	0.711043
1042	C	0.644319	0.401071	0.710979
1043	C	0.661507	0.415249	0.67031
1044	C	0.646627	0.398493	0.962974
1045	C	0.616404	0.368346	0.963035
1046	C	0.599777	0.353487	0.670485
1047	H	0.65969	0.405946	0.933383
1048	H	0.655876	0.410206	0.741271
1049	H	0.605035	0.359297	0.741386
1050	H	0.608933	0.355175	0.933538
1051	C	0.873718	0.265663	0.710969
1052	C	0.903986	0.26571	0.710982
1053	C	0.918298	0.262728	0.670404
1054	C	0.901609	0.261009	0.963045
1055	C	0.871393	0.260952	0.963069
1056	C	0.856423	0.262701	0.670404
1057	H	0.909	0.255288	0.933494
1058	H	0.913062	0.263265	0.741312
1059	H	0.862247	0.263258	0.741332
1060	H	0.858307	0.255283	0.933494
1061	C	0.749554	0.11117	0.710969
1062	C	0.749494	0.141387	0.711006
1063	C	0.752223	0.158485	0.670323
1064	C	0.75382	0.143529	0.962924
1065	C	0.753887	0.113377	0.962954
1066	C	0.752276	0.096758	0.670306
1067	H	0.759301	0.156592	0.933346
1068	H	0.752051	0.152977	0.741312
1069	H	0.752062	0.102146	0.741312
1070	H	0.759327	0.105786	0.933356
1071	C	0.903885	0.141438	0.711006
1072	C	0.873681	0.111153	0.711144
1073	C	0.856494	0.096759	0.670553
1074	C	0.87136	0.113322	0.963106
1075	C	0.901603	0.14346	0.962977
1076	C	0.91826	0.158517	0.670296
1077	H	0.858286	0.105739	0.933535
1078	H	0.862203	0.102139	0.741518
1079	H	0.913071	0.152981	0.741305
1080	H	0.909068	0.156518	0.933393
1081	C	0.526987	0.76498	0.339743
1082	C	0.546231	0.800428	0.339507
1083	C	0.581238	0.818436	0.338579
1084	C	0.598479	0.80073	0.338562
1085	C	0.581234	0.765784	0.005232
1086	C	0.546228	0.748778	0.006074
1087	H	0.535158	0.81445	0.339469
1088	O	0.632298	0.817634	0.338508
1089	C	0.991065	0.747012	0.339739
1090	C	0.971826	0.763216	0.00614
1091	C	0.936824	0.746217	0.005185
1092	C	0.919571	0.71127	0.338488
1093	C	0.93681	0.693561	0.338548
1094	C	0.971818	0.711564	0.339429
1095	O	0.885752	0.694365	0.338397
1096	H	0.98289	0.697542	0.339328
1097	H	0.638939	0.821012	0.03708
1098	H	0.879092	0.691099	0.036961
1099	H	0.535154	0.723683	0.005923
1100	H	0.982899	0.788311	0.00609
1101	C	0.749989	0.764958	0.339675
1102	C	0.714547	0.748758	0.339382
1103	C	0.696545	0.765765	0.338673
1104	C	0.71425	0.800712	0.338771
1105	C	0.749199	0.818414	0.005347
1106	C	0.766196	0.800405	0.006109
1107	H	0.700525	0.723664	0.339179
1108	O	0.697339	0.817619	0.338778
1109	C	0.767943	0.746989	0.339655
1110	C	0.751739	0.711544	0.006026
1111	C	0.76874	0.693539	0.005198
1112	C	0.803688	0.711242	0.338535
1113	C	0.821388	0.74619	0.338521
1114	C	0.803388	0.763194	0.339405
1115	O	0.820594	0.69433	0.338498
1116	H	0.817409	0.788289	0.339345
1117	H	0.694073	0.820967	0.037361
1118	H	0.823972	0.691074	0.037075
1119	H	0.79129	0.814423	0.006003
1120	H	0.726644	0.697525	0.005907
1121	C	0.750014	0.988045	0.339716
1122	C	0.766221	0.968807	0.339351
1123	C	0.749224	0.933802	0.3384
1124	C	0.714276	0.916556	0.338299
1125	C	0.696565	0.933792	0.005067
1126	C	0.714569	0.968797	0.006149
1127	H	0.791317	0.979884	0.339247
1128	O	0.697375	0.882737	0.338211
1129	C	0.76798	0.523972	0.339753
1130	C	0.803426	0.543217	0.006202
1131	C	0.821435	0.578224	0.005343
1132	C	0.80373	0.595468	0.33866
1133	C	0.76878	0.578222	0.338626
1134	C	0.751778	0.543215	0.339412
1135	O	0.820636	0.629285	0.338579
1136	H	0.726681	0.532137	0.339179
1137	H	0.693999	0.876078	0.036776
1138	H	0.823985	0.635943	0.037145
1139	H	0.700548	0.979872	0.006205
1140	H	0.817446	0.532142	0.006167
1141	C	0.644375	0.746539	0.04439
1142	C	0.614119	0.746519	0.044329
1143	C	0.599767	0.749276	0.003623
1144	C	0.616382	0.750852	0.296281
1145	C	0.646577	0.750874	0.296335
1146	C	0.661497	0.749243	0.003748
1147	H	0.608836	0.75635	0.26669
1148	H	0.605068	0.74907	0.074622
1149	H	0.655893	0.74905	0.074746
1150	H	0.659631	0.7563	0.266755
1151	C	0.768499	0.900965	0.044236
1152	C	0.768564	0.870756	0.044425
1153	C	0.765719	0.85346	0.00392
1154	C	0.763987	0.868309	0.296451
1155	C	0.764093	0.89855	0.29623
1156	C	0.765734	0.915269	0.003498
1157	H	0.758477	0.855207	0.266902
1158	H	0.76613	0.859327	0.074831
1159	H	0.766175	0.910194	0.074517
1160	H	0.758466	0.905966	0.266631
1161	C	0.614089	0.8708	0.044376
1162	C	0.644317	0.901072	0.044312
1163	C	0.661507	0.91525	0.003643
1164	C	0.646628	0.898493	0.296309
1165	C	0.616404	0.868346	0.296369
1166	C	0.599776	0.853485	0.003819
1167	H	0.65969	0.905946	0.266718
1168	H	0.655877	0.910207	0.074604
1169	H	0.605035	0.859297	0.07472
1170	H	0.608931	0.855173	0.26687
1171	C	0.873717	0.765661	0.044301
1172	C	0.903986	0.76571	0.044314
1173	C	0.918299	0.762729	0.003738
1174	C	0.901607	0.761009	0.296379
1175	C	0.871391	0.760952	0.296401
1176	C	0.856423	0.762701	0.003738
1177	H	0.909001	0.755288	0.266829
1178	H	0.913062	0.763266	0.074645
1179	H	0.862247	0.763258	0.074667
1180	H	0.858307	0.755283	0.266828
1181	C	0.749552	0.61117	0.044301
1182	C	0.749491	0.641387	0.044338
1183	C	0.752222	0.658485	0.003657
1184	C	0.75382	0.64353	0.296255
1185	C	0.753887	0.613377	0.296289
1186	C	0.752276	0.596757	0.00364
1187	H	0.759301	0.656592	0.266681
1188	H	0.75205	0.652977	0.074644
1189	H	0.752062	0.602146	0.074645
1190	H	0.759327	0.605786	0.266691
1191	C	0.903884	0.641439	0.044341
1192	C	0.873681	0.611153	0.044476
1193	C	0.856491	0.596757	0.003886
1194	C	0.87136	0.61332	0.296439
1195	C	0.901603	0.64346	0.29631
1196	C	0.91826	0.658517	0.00363
1197	H	0.858286	0.605739	0.266869
1198	H	0.862203	0.602139	0.074851
1199	H	0.913071	0.652982	0.074638
1200	H	0.909066	0.656517	0.266727
1201	C	0.526987	0.76498	0.673076
1202	C	0.546231	0.800428	0.67284
1203	C	0.581238	0.818436	0.671912
1204	C	0.598479	0.80073	0.671895
1205	C	0.581234	0.765784	0.338562
1206	C	0.546228	0.748778	0.339409
1207	H	0.535158	0.81445	0.672803
1208	O	0.632298	0.817634	0.671841
1209	C	0.991065	0.747012	0.673073
1210	C	0.971826	0.763216	0.339473
1211	C	0.936824	0.746217	0.338518
1212	C	0.919571	0.71127	0.671821
1213	C	0.93681	0.693561	0.671882
1214	C	0.971818	0.711564	0.672762
1215	O	0.885752	0.694365	0.67173
1216	H	0.98289	0.697542	0.672661
1217	H	0.638939	0.821012	0.370413
1218	H	0.879092	0.691099	0.370295
1219	H	0.535154	0.723683	0.339257
1220	H	0.982899	0.788311	0.339422
1221	C	0.749989	0.764958	0.673008
1222	C	0.714547	0.748758	0.672715
1223	C	0.696545	0.765765	0.672007
1224	C	0.71425	0.800712	0.672104
1225	C	0.749199	0.818414	0.33868
1226	C	0.766196	0.800405	0.339442
1227	H	0.700525	0.723664	0.672513
1228	O	0.697339	0.817619	0.672111
1229	C	0.767943	0.746989	0.672988
1230	C	0.751739	0.711544	0.339358
1231	C	0.76874	0.693539	0.338532
1232	C	0.803688	0.711242	0.671868
1233	C	0.821388	0.74619	0.671855
1234	C	0.803388	0.763194	0.672739
1235	O	0.820594	0.69433	0.671831
1236	H	0.817409	0.788289	0.672678
1237	H	0.694073	0.820967	0.370693
1238	H	0.823972	0.691074	0.37041
1239	H	0.79129	0.814423	0.339338
1240	H	0.726644	0.697525	0.33924
1241	C	0.750014	0.988045	0.673049
1242	C	0.766221	0.968807	0.672685
1243	C	0.749224	0.933802	0.671733
1244	C	0.714276	0.916556	0.671632
1245	C	0.696565	0.933792	0.3384
1246	C	0.714569	0.968797	0.339483
1247	H	0.791317	0.979884	0.67258
1248	O	0.697375	0.882737	0.671544
1249	C	0.76798	0.523972	0.673086
1250	C	0.803426	0.543217	0.339534
1251	C	0.821435	0.578224	0.338677
1252	C	0.80373	0.595468	0.671993
1253	C	0.76878	0.578222	0.671959
1254	C	0.751778	0.543215	0.672745
1255	O	0.820636	0.629285	0.671912
1256	H	0.726681	0.532137	0.672513
1257	H	0.693999	0.876078	0.370109
1258	H	0.823985	0.635943	0.370477
1259	H	0.700548	0.979872	0.33954
1260	H	0.817446	0.532142	0.3395
1261	C	0.644375	0.746539	0.377723
1262	C	0.614119	0.746519	0.377662
1263	C	0.599767	0.749276	0.336957
1264	C	0.616382	0.750852	0.629614
1265	C	0.646577	0.750874	0.629668
1266	C	0.661497	0.749243	0.337082
1267	H	0.608836	0.75635	0.600023
1268	H	0.605068	0.74907	0.407955
1269	H	0.655893	0.74905	0.40808
1270	H	0.659631	0.7563	0.60009
1271	C	0.768499	0.900965	0.377568
1272	C	0.768564	0.870756	0.377757
1273	C	0.765719	0.85346	0.337251
1274	C	0.763987	0.868309	0.629786
1275	C	0.764093	0.89855	0.629563
1276	C	0.765734	0.915269	0.336832
1277	H	0.758477	0.855207	0.600235
1278	H	0.76613	0.859327	0.408164
1279	H	0.766175	0.910194	0.40785
1280	H	0.758466	0.905966	0.599966
1281	C	0.614089	0.8708	0.37771
1282	C	0.644317	0.901072	0.377646
1283	C	0.661507	0.91525	0.336976
1284	C	0.646628	0.898493	0.629641
1285	C	0.616404	0.868346	0.629702
1286	C	0.599776	0.853485	0.337151
1287	H	0.65969	0.905946	0.60005
1288	H	0.655877	0.910207	0.407938
1289	H	0.605035	0.859297	0.408053
1290	H	0.608931	0.855173	0.600205
1291	C	0.873717	0.765661	0.377635
1292	C	0.903986	0.76571	0.377649
1293	C	0.918299	0.762729	0.33707
1294	C	0.901607	0.761009	0.629712
1295	C	0.871391	0.760952	0.629735
1296	C	0.856423	0.762701	0.337072
1297	H	0.909001	0.755288	0.600161
1298	H	0.913062	0.763266	0.407979
1299	H	0.862247	0.763258	0.407999
1300	H	0.858307	0.755283	0.600161
1301	C	0.749552	0.61117	0.377635
1302	C	0.749491	0.641387	0.377672
1303	C	0.752222	0.658485	0.336991
1304	C	0.75382	0.64353	0.629587
1305	C	0.753887	0.613377	0.629621
1306	C	0.752276	0.596757	0.336971
1307	H	0.759301	0.656592	0.600013
1308	H	0.75205	0.652977	0.407979
1309	H	0.752062	0.602146	0.407979
1310	H	0.759327	0.605786	0.600023
1311	C	0.903884	0.641439	0.377672
1312	C	0.873681	0.611153	0.377811
1313	C	0.856491	0.596757	0.33722
1314	C	0.87136	0.61332	0.629772
1315	C	0.901603	0.64346	0.629644
1316	C	0.91826	0.658517	0.336962
1317	H	0.858286	0.605739	0.600202
1318	H	0.862203	0.602139	0.408184
1319	H	0.913071	0.652982	0.407972
1320	H	0.909066	0.656517	0.60006
1321	C	0.526987	0.76498	0.006409
1322	C	0.546231	0.800428	0.006173
1323	C	0.581238	0.818436	0.005245
1324	C	0.598479	0.80073	0.005229
1325	C	0.581234	0.765784	0.671895
1326	C	0.546228	0.748778	0.672742
1327	H	0.535158	0.81445	0.006137
1328	O	0.632298	0.817634	0.005175
1329	C	0.991065	0.747012	0.006404
1330	C	0.971826	0.763216	0.672806
1331	C	0.936824	0.746217	0.671851
1332	C	0.919571	0.71127	0.005154
1333	C	0.93681	0.693561	0.005215
1334	C	0.971818	0.711564	0.006096
1335	O	0.885752	0.694365	0.005063
1336	H	0.98289	0.697542	0.005994
1337	H	0.638939	0.821012	0.703746
1338	H	0.879092	0.691099	0.703628
1339	H	0.535154	0.723683	0.67259
1340	H	0.982899	0.788311	0.672755
1341	C	0.749989	0.764958	0.006341
1342	C	0.714547	0.748758	0.006049
1343	C	0.696545	0.765765	0.00534
1344	C	0.71425	0.800712	0.005438
1345	C	0.749199	0.818414	0.672013
1346	C	0.766196	0.800405	0.672776
1347	H	0.700525	0.723664	0.005846
1348	O	0.697339	0.817619	0.005444
1349	C	0.767943	0.746989	0.00632
1350	C	0.751739	0.711544	0.672691
1351	C	0.76874	0.693539	0.671865
1352	C	0.803688	0.711242	0.005202
1353	C	0.821388	0.74619	0.005188
1354	C	0.803388	0.763194	0.006073
1355	O	0.820594	0.69433	0.005164
1356	H	0.817409	0.788289	0.00601
1357	H	0.694073	0.820967	0.704026
1358	H	0.823972	0.691074	0.703743
1359	H	0.79129	0.814423	0.672671
1360	H	0.726644	0.697525	0.672573
1361	C	0.750014	0.988045	0.006382
1362	C	0.766221	0.968807	0.006019
1363	C	0.749224	0.933802	0.005067
1364	C	0.714276	0.916556	0.004969
1365	C	0.696565	0.933792	0.671733
1366	C	0.714569	0.968797	0.672816
1367	H	0.791317	0.979884	0.005913
1368	O	0.697375	0.882737	0.004878
1369	C	0.76798	0.523972	0.00642
1370	C	0.803426	0.543217	0.672867
1371	C	0.821435	0.578224	0.67201
1372	C	0.80373	0.595468	0.005326
1373	C	0.76878	0.578222	0.005293
1374	C	0.751778	0.543215	0.006077
1375	O	0.820636	0.629285	0.005245
1376	H	0.726681	0.532137	0.005846
1377	H	0.693999	0.876078	0.703443
1378	H	0.823985	0.635943	0.70381
1379	H	0.700548	0.979872	0.672874
1380	H	0.817446	0.532142	0.672833
1381	C	0.644375	0.746539	0.711056
1382	C	0.614119	0.746519	0.710996
1383	C	0.599767	0.749276	0.67029
1384	C	0.616382	0.750852	0.962947
1385	C	0.646577	0.750874	0.963001
1386	C	0.661497	0.749243	0.670414
1387	H	0.608836	0.75635	0.933356
1388	H	0.605068	0.74907	0.741288
1389	H	0.655893	0.74905	0.741413
1390	H	0.659631	0.7563	0.933424
1391	C	0.768499	0.900965	0.710901
1392	C	0.768564	0.870756	0.71109
1393	C	0.765719	0.85346	0.670586
1394	C	0.763987	0.868309	0.963119
1395	C	0.764093	0.89855	0.962897
1396	C	0.765734	0.915269	0.670165
1397	H	0.758477	0.855207	0.933569
1398	H	0.76613	0.859327	0.741497
1399	H	0.766175	0.910194	0.741184
1400	H	0.758466	0.905966	0.933299
1401	C	0.614089	0.8708	0.711043
1402	C	0.644317	0.901072	0.710979
1403	C	0.661507	0.91525	0.67031
1404	C	0.646628	0.898493	0.962974
1405	C	0.616404	0.868346	0.963035
1406	C	0.599776	0.853485	0.670485
1407	H	0.65969	0.905946	0.933383
1408	H	0.655877	0.910207	0.741271
1409	H	0.605035	0.859297	0.741386
1410	H	0.608931	0.855173	0.933538
1411	C	0.873717	0.765661	0.710969
1412	C	0.903986	0.76571	0.710982
1413	C	0.918299	0.762729	0.670404
1414	C	0.901607	0.761009	0.963045
1415	C	0.871391	0.760952	0.963069
1416	C	0.856423	0.762701	0.670404
1417	H	0.909001	0.755288	0.933494
1418	H	0.913062	0.763266	0.741312
1419	H	0.862247	0.763258	0.741332
1420	H	0.858307	0.755283	0.933494
1421	C	0.749552	0.61117	0.710969
1422	C	0.749491	0.641387	0.711006
1423	C	0.752222	0.658485	0.670323
1424	C	0.75382	0.64353	0.962924
1425	C	0.753887	0.613377	0.962954
1426	C	0.752276	0.596757	0.670306
1427	H	0.759301	0.656592	0.933346
1428	H	0.75205	0.652977	0.741312
1429	H	0.752062	0.602146	0.741312
1430	H	0.759327	0.605786	0.933356
1431	C	0.903884	0.641439	0.711006
1432	C	0.873681	0.611153	0.711144
1433	C	0.856491	0.596757	0.670553
1434	C	0.87136	0.61332	0.963106
1435	C	0.901603	0.64346	0.962977
1436	C	0.91826	0.658517	0.670296
1437	H	0.858286	0.605739	0.933535
1438	H	0.862203	0.602139	0.741518
1439	H	0.913071	0.652982	0.741305
1440	H	0.909066	0.656517	0.933393
