data_C504H432N72O72_2018-02-15_10:32:50
#******************************************
#
# CIF file created by Zeo++
# Zeo++ is an open source package to
# analyze microporous materials
#
#*******************************************

_cell_length_a		43.971   
_cell_length_b		43.971   
_cell_length_c		30.0898   
_cell_angle_alpha		90   
_cell_angle_beta		90   
_cell_angle_gamma		120   

_symmetry_space_group_name_H-M		'P1'
_symmetry_Int_Tables_number		1
_symmetry_cell_setting		Monoclinic

loop_
_symmetry_equiv_pos_as_xyz
'+x,+y,+z'

loop_
_atom_site_label
_atom_site_type_symbol
_atom_site_fract_x
_atom_site_fract_y
_atom_site_fract_z
1	C	0.16964	0.366809	0.016829
2	C	0.135553	0.336927	0.016285
3	C	0.129468	0.302109	0.01685
4	C	0.159349	0.297902	0.016251
5	C	0.194169	0.326636	0.350139
6	C	0.198375	0.360725	0.016248
7	H	0.155483	0.273041	0.014399
8	H	0.223233	0.38172	0.014365
9	H	0.114554	0.340788	0.01446
10	C	0.174355	0.401266	0.016563
11	C	0.2239	0.321904	0.349826
12	C	0.095004	0.272377	0.016563
13	O	0.25613	0.350596	0.010543
14	O	0.145651	0.4048	0.010716
15	O	0.091462	0.240146	0.010611
16	C	0.313363	0.127524	0.965972
17	C	0.350484	0.147894	0.965308
18	C	0.368768	0.185066	0.965899
19	C	0.34838	0.201806	0.965354
20	C	0.311209	0.182923	0.299288
21	C	0.294467	0.145796	0.965394
22	H	0.361068	0.228501	0.968176
23	H	0.267774	0.131795	0.968252
24	H	0.364495	0.135211	0.968149
25	C	0.296389	0.09073	0.973596
26	C	0.29139	0.19989	0.306963
27	C	0.405563	0.204886	0.97351
28	O	0.256488	0.179762	0.982254
29	O	0.316515	0.075954	0.98222
30	O	0.420327	0.239781	0.982184
31	C	0.289637	0.252151	0.328247
32	C	0.290783	0.280473	0.304825
33	C	0.270128	0.294816	0.317988
34	C	0.248232	0.282264	0.022554
35	C	0.250789	0.257248	0.050464
36	H	0.268157	0.311565	0.296165
37	H	0.303306	0.288004	0.274739
38	C	0.272251	0.242781	0.037045
39	C	0.232833	0.247455	0.094903
40	H	0.219465	0.261682	0.10416
41	H	0.251886	0.253144	0.12133
42	H	0.213521	0.219466	0.095346
43	C	0.279226	0.220739	0.068941
44	H	0.298885	0.214398	0.057574
45	H	0.254992	0.196178	0.075561
46	H	0.289538	0.234779	0.100137
47	N	0.222965	0.291463	0.028527
48	H	0.201813	0.27421	0.043468
49	N	0.305442	0.23546	0.308751
50	H	0.324434	0.24896	0.287797
51	C	0.244086	0.036739	0.328325
52	C	0.215651	0.009596	0.30502
53	C	0.201276	0.47459	0.318197
54	C	0.213942	0.465242	0.022657
55	C	0.239015	0.492807	0.050521
56	H	0.184631	0.45588	0.296295
57	H	0.208173	0.01453	0.274864
58	C	0.253503	0.028732	0.037091
59	C	0.248879	0.484627	0.094902
60	H	0.234618	0.457035	0.104168
61	H	0.243289	0.49803	0.121378
62	H	0.276857	0.493248	0.095234
63	C	0.275631	0.05775	0.06894
64	H	0.281983	0.083753	0.057573
65	H	0.300187	0.058044	0.075476
66	H	0.261654	0.054053	0.100181
67	N	0.204804	0.430785	0.028545
68	H	0.222099	0.426904	0.043399
69	N	0.260826	0.0692	0.30875
70	H	0.247323	0.07473	0.287839
71	C	0.459538	0.206647	0.32819
72	C	0.486738	0.205548	0.304765
73	C	0.021726	0.226203	0.317964
74	C	0.031037	0.248058	0.022568
75	C	0.003443	0.245468	0.050461
76	H	0.040462	0.228199	0.296152
77	H	0.481768	0.193041	0.274669
78	C	0.467524	0.223997	0.037011
79	C	0.011574	0.263395	0.094919
80	H	0.039165	0.276773	0.104198
81	H	0.998203	0.244322	0.121324
82	H	0.002881	0.282694	0.095373
83	C	0.438485	0.216986	0.068889
84	H	0.412491	0.197336	0.057486
85	H	0.438149	0.24121	0.075542
86	H	0.442197	0.206647	0.100072
87	N	0.065499	0.273317	0.028587
88	H	0.069395	0.294459	0.043546
89	N	0.427036	0.19078	0.30871
90	H	0.421587	0.171872	0.287645
91	C	0.16964	0.366809	0.350162
92	C	0.135553	0.336927	0.34962
93	C	0.129468	0.302109	0.350182
94	C	0.159349	0.297902	0.349584
95	C	0.194169	0.326636	0.683471
96	C	0.198375	0.360725	0.34958
97	H	0.155483	0.273041	0.347733
98	H	0.223233	0.38172	0.347699
99	H	0.114554	0.340788	0.347792
100	C	0.174355	0.401266	0.349896
101	C	0.2239	0.321904	0.683159
102	C	0.095004	0.272377	0.349896
103	O	0.25613	0.350596	0.343877
104	O	0.145651	0.4048	0.34405
105	O	0.091462	0.240146	0.343944
106	C	0.313363	0.127524	0.299308
107	C	0.350484	0.147894	0.298641
108	C	0.368768	0.185066	0.299232
109	C	0.34838	0.201806	0.298688
110	C	0.311209	0.182923	0.63262
111	C	0.294467	0.145796	0.298727
112	H	0.361068	0.228501	0.301509
113	H	0.267774	0.131795	0.301587
114	H	0.364495	0.135211	0.301483
115	C	0.296389	0.09073	0.306929
116	C	0.29139	0.19989	0.640297
117	C	0.405563	0.204886	0.306845
118	O	0.256488	0.179762	0.315588
119	O	0.316515	0.075954	0.315555
120	O	0.420327	0.239781	0.315516
121	C	0.289637	0.252151	0.66158
122	C	0.290783	0.280473	0.638157
123	C	0.270128	0.294816	0.651321
124	C	0.248232	0.282264	0.355888
125	C	0.250789	0.257248	0.383798
126	H	0.268157	0.311565	0.629499
127	H	0.303306	0.288004	0.608073
128	C	0.272251	0.242781	0.370378
129	C	0.232833	0.247455	0.428235
130	H	0.219465	0.261682	0.437494
131	H	0.251886	0.253144	0.454663
132	H	0.213521	0.219466	0.428677
133	C	0.279226	0.220739	0.402273
134	H	0.298885	0.214398	0.390907
135	H	0.254992	0.196178	0.408893
136	H	0.289538	0.234779	0.433469
137	N	0.222965	0.291463	0.36186
138	H	0.201813	0.27421	0.376799
139	N	0.305442	0.23546	0.642085
140	H	0.324434	0.24896	0.621131
141	C	0.244086	0.036739	0.661656
142	C	0.215651	0.009596	0.638353
143	C	0.201276	0.47459	0.65153
144	C	0.213942	0.465242	0.355991
145	C	0.239015	0.492807	0.383855
146	H	0.184631	0.45588	0.629629
147	H	0.208173	0.01453	0.608196
148	C	0.253503	0.028732	0.370425
149	C	0.248879	0.484627	0.428235
150	H	0.234618	0.457035	0.437501
151	H	0.243289	0.49803	0.454712
152	H	0.276857	0.493248	0.428567
153	C	0.275631	0.05775	0.402273
154	H	0.281983	0.083753	0.390907
155	H	0.300187	0.058044	0.40881
156	H	0.261654	0.054053	0.433513
157	N	0.204804	0.430785	0.361877
158	H	0.222099	0.426904	0.376733
159	N	0.260826	0.0692	0.642082
160	H	0.247323	0.07473	0.621171
161	C	0.459538	0.206647	0.661524
162	C	0.486738	0.205548	0.638097
163	C	0.021726	0.226203	0.651297
164	C	0.031037	0.248058	0.355902
165	C	0.003443	0.245468	0.383795
166	H	0.040462	0.228199	0.629486
167	H	0.481768	0.193041	0.608004
168	C	0.467524	0.223997	0.370345
169	C	0.011574	0.263395	0.428252
170	H	0.039165	0.276773	0.437531
171	H	0.998203	0.244322	0.454656
172	H	0.002881	0.282694	0.428707
173	C	0.438485	0.216986	0.402223
174	H	0.412491	0.197336	0.39082
175	H	0.438149	0.24121	0.408876
176	H	0.442197	0.206647	0.433406
177	N	0.065499	0.273317	0.36192
178	H	0.069395	0.294459	0.376879
179	N	0.427036	0.19078	0.642045
180	H	0.421587	0.171872	0.620978
181	C	0.16964	0.366809	0.683494
182	C	0.135553	0.336927	0.682953
183	C	0.129468	0.302109	0.683518
184	C	0.159349	0.297902	0.682916
185	C	0.194169	0.326636	0.016805
186	C	0.198375	0.360725	0.682913
187	H	0.155483	0.273041	0.681065
188	H	0.223233	0.38172	0.681032
189	H	0.114554	0.340788	0.681125
190	C	0.174355	0.401266	0.683229
191	C	0.2239	0.321904	0.016494
192	C	0.095004	0.272377	0.683229
193	O	0.25613	0.350596	0.67721
194	O	0.145651	0.4048	0.677383
195	O	0.091462	0.240146	0.677276
196	C	0.313363	0.127524	0.63264
197	C	0.350484	0.147894	0.631975
198	C	0.368768	0.185066	0.632564
199	C	0.34838	0.201806	0.632022
200	C	0.311209	0.182923	0.965956
201	C	0.294467	0.145796	0.632062
202	H	0.361068	0.228501	0.634843
203	H	0.267774	0.131795	0.63492
204	H	0.364495	0.135211	0.634817
205	C	0.296389	0.09073	0.640264
206	C	0.29139	0.19989	0.973629
207	C	0.405563	0.204886	0.640177
208	O	0.256488	0.179762	0.648921
209	O	0.316515	0.075954	0.648888
210	O	0.420327	0.239781	0.648848
211	C	0.289637	0.252151	0.994912
212	C	0.290783	0.280473	0.971492
213	C	0.270128	0.294816	0.984653
214	C	0.248232	0.282264	0.689221
215	C	0.250789	0.257248	0.71713
216	H	0.268157	0.311565	0.962832
217	H	0.303306	0.288004	0.941406
218	C	0.272251	0.242781	0.703711
219	C	0.232833	0.247455	0.761571
220	H	0.219465	0.261682	0.770826
221	H	0.251886	0.253144	0.787995
222	H	0.213521	0.219466	0.762013
223	C	0.279226	0.220739	0.735608
224	H	0.298885	0.214398	0.724239
225	H	0.254992	0.196178	0.742225
226	H	0.289538	0.234779	0.766802
227	N	0.222965	0.291463	0.695193
228	H	0.201813	0.27421	0.710135
229	N	0.305442	0.23546	0.975417
230	H	0.324434	0.24896	0.954463
231	C	0.244086	0.036739	0.994992
232	C	0.215651	0.009596	0.971685
233	C	0.201276	0.47459	0.984862
234	C	0.213942	0.465242	0.689324
235	C	0.239015	0.492807	0.717187
236	H	0.184631	0.45588	0.962961
237	H	0.208173	0.01453	0.941529
238	C	0.253503	0.028732	0.703757
239	C	0.248879	0.484627	0.761567
240	H	0.234618	0.457035	0.770833
241	H	0.243289	0.49803	0.788045
242	H	0.276857	0.493248	0.7619
243	C	0.275631	0.05775	0.735605
244	H	0.281983	0.083753	0.724239
245	H	0.300187	0.058044	0.742142
246	H	0.261654	0.054053	0.766848
247	N	0.204804	0.430785	0.695213
248	H	0.222099	0.426904	0.710065
249	N	0.260826	0.0692	0.975417
250	H	0.247323	0.07473	0.954507
251	C	0.459538	0.206647	0.994856
252	C	0.486738	0.205548	0.971433
253	C	0.021726	0.226203	0.98463
254	C	0.031037	0.248058	0.689234
255	C	0.003443	0.245468	0.717127
256	H	0.040462	0.228199	0.962818
257	H	0.481768	0.193041	0.941336
258	C	0.467524	0.223997	0.703677
259	C	0.011574	0.263395	0.761584
260	H	0.039165	0.276773	0.770866
261	H	0.998203	0.244322	0.787992
262	H	0.002881	0.282694	0.762039
263	C	0.438485	0.216986	0.735555
264	H	0.412491	0.197336	0.724153
265	H	0.438149	0.24121	0.742209
266	H	0.442197	0.206647	0.766739
267	N	0.065499	0.273317	0.695253
268	H	0.069395	0.294459	0.710211
269	N	0.427036	0.19078	0.975378
270	H	0.421587	0.171872	0.954311
271	C	0.16964	0.866809	0.016829
272	C	0.135552	0.836927	0.016285
273	C	0.129468	0.802109	0.01685
274	C	0.159347	0.797902	0.016251
275	C	0.194169	0.826636	0.350139
276	C	0.198375	0.860725	0.016248
277	H	0.155484	0.773041	0.014399
278	H	0.223233	0.88172	0.014365
279	H	0.114554	0.840788	0.01446
280	C	0.174355	0.901266	0.016563
281	C	0.223901	0.821904	0.349826
282	C	0.095003	0.772376	0.016563
283	O	0.25613	0.850596	0.010543
284	O	0.14565	0.9048	0.010716
285	O	0.091463	0.740147	0.010611
286	C	0.313363	0.627524	0.965972
287	C	0.350484	0.647894	0.965308
288	C	0.368767	0.685066	0.965899
289	C	0.348381	0.701807	0.965354
290	C	0.311209	0.682923	0.299288
291	C	0.294467	0.645796	0.965394
292	H	0.361067	0.7285	0.968176
293	H	0.267774	0.631794	0.968252
294	H	0.364494	0.63521	0.968149
295	C	0.296391	0.59073	0.973596
296	C	0.29139	0.69989	0.306963
297	C	0.405563	0.704887	0.97351
298	O	0.256488	0.679761	0.982254
299	O	0.316516	0.575953	0.98222
300	O	0.420328	0.739782	0.982184
301	C	0.289636	0.752151	0.328247
302	C	0.290783	0.780473	0.304825
303	C	0.270128	0.794816	0.317988
304	C	0.248232	0.782264	0.022554
305	C	0.25079	0.757248	0.050464
306	H	0.268157	0.811565	0.296165
307	H	0.303306	0.788004	0.274739
308	C	0.272251	0.742781	0.037045
309	C	0.232833	0.747455	0.094903
310	H	0.219465	0.761681	0.10416
311	H	0.251886	0.753143	0.12133
312	H	0.21352	0.719464	0.095346
313	C	0.279226	0.720738	0.068941
314	H	0.298886	0.714399	0.057574
315	H	0.254993	0.696179	0.075561
316	H	0.289538	0.734779	0.100137
317	N	0.222964	0.791463	0.028527
318	H	0.201813	0.774209	0.043468
319	N	0.305441	0.735459	0.308751
320	H	0.324434	0.74896	0.287797
321	C	0.244086	0.536738	0.328325
322	C	0.215651	0.509596	0.30502
323	C	0.201277	0.97459	0.318197
324	C	0.213941	0.965241	0.022657
325	C	0.239016	0.992807	0.050521
326	H	0.184631	0.95588	0.296295
327	H	0.208172	0.51453	0.274864
328	C	0.253503	0.528732	0.037091
329	C	0.248878	0.984627	0.094902
330	H	0.234618	0.957035	0.104168
331	H	0.24329	0.99803	0.121378
332	H	0.276857	0.993248	0.095234
333	C	0.275632	0.557749	0.06894
334	H	0.281982	0.583753	0.057573
335	H	0.300187	0.558044	0.075476
336	H	0.261653	0.554052	0.100181
337	N	0.204805	0.930785	0.028545
338	H	0.2221	0.926904	0.043399
339	N	0.260826	0.569199	0.30875
340	H	0.247323	0.574729	0.287839
341	C	0.459539	0.706646	0.32819
342	C	0.486738	0.705549	0.304765
343	C	0.021726	0.726203	0.317964
344	C	0.031036	0.748057	0.022568
345	C	0.003443	0.745467	0.050461
346	H	0.040461	0.728198	0.296152
347	H	0.481767	0.693041	0.274669
348	C	0.467524	0.723997	0.037011
349	C	0.011574	0.763395	0.094919
350	H	0.039165	0.776773	0.104198
351	H	0.998203	0.744322	0.121324
352	H	0.00288	0.782694	0.095373
353	C	0.438484	0.716985	0.068889
354	H	0.412492	0.697337	0.057486
355	H	0.438148	0.741211	0.075542
356	H	0.442197	0.706646	0.100072
357	N	0.065499	0.773317	0.028587
358	H	0.069395	0.794459	0.043546
359	N	0.427035	0.69078	0.30871
360	H	0.421588	0.671872	0.287645
361	C	0.16964	0.866809	0.350162
362	C	0.135552	0.836927	0.34962
363	C	0.129468	0.802109	0.350182
364	C	0.159347	0.797902	0.349584
365	C	0.194169	0.826636	0.683471
366	C	0.198375	0.860725	0.34958
367	H	0.155484	0.773041	0.347733
368	H	0.223233	0.88172	0.347699
369	H	0.114554	0.840788	0.347792
370	C	0.174355	0.901266	0.349896
371	C	0.223901	0.821904	0.683159
372	C	0.095003	0.772376	0.349896
373	O	0.25613	0.850596	0.343877
374	O	0.14565	0.9048	0.34405
375	O	0.091463	0.740147	0.343944
376	C	0.313363	0.627524	0.299308
377	C	0.350484	0.647894	0.298641
378	C	0.368767	0.685066	0.299232
379	C	0.348381	0.701807	0.298688
380	C	0.311209	0.682923	0.63262
381	C	0.294467	0.645796	0.298727
382	H	0.361067	0.7285	0.301509
383	H	0.267774	0.631794	0.301587
384	H	0.364494	0.63521	0.301483
385	C	0.296391	0.59073	0.306929
386	C	0.29139	0.69989	0.640297
387	C	0.405563	0.704887	0.306845
388	O	0.256488	0.679761	0.315588
389	O	0.316516	0.575953	0.315555
390	O	0.420328	0.739782	0.315516
391	C	0.289636	0.752151	0.66158
392	C	0.290783	0.780473	0.638157
393	C	0.270128	0.794816	0.651321
394	C	0.248232	0.782264	0.355888
395	C	0.25079	0.757248	0.383798
396	H	0.268157	0.811565	0.629499
397	H	0.303306	0.788004	0.608073
398	C	0.272251	0.742781	0.370378
399	C	0.232833	0.747455	0.428235
400	H	0.219465	0.761681	0.437494
401	H	0.251886	0.753143	0.454663
402	H	0.21352	0.719464	0.428677
403	C	0.279226	0.720738	0.402273
404	H	0.298886	0.714399	0.390907
405	H	0.254993	0.696179	0.408893
406	H	0.289538	0.734779	0.433469
407	N	0.222964	0.791463	0.36186
408	H	0.201813	0.774209	0.376799
409	N	0.305441	0.735459	0.642085
410	H	0.324434	0.74896	0.621131
411	C	0.244086	0.536738	0.661656
412	C	0.215651	0.509596	0.638353
413	C	0.201277	0.97459	0.65153
414	C	0.213941	0.965241	0.355991
415	C	0.239016	0.992807	0.383855
416	H	0.184631	0.95588	0.629629
417	H	0.208172	0.51453	0.608196
418	C	0.253503	0.528732	0.370425
419	C	0.248878	0.984627	0.428235
420	H	0.234618	0.957035	0.437501
421	H	0.24329	0.99803	0.454712
422	H	0.276857	0.993248	0.428567
423	C	0.275632	0.557749	0.402273
424	H	0.281982	0.583753	0.390907
425	H	0.300187	0.558044	0.40881
426	H	0.261653	0.554052	0.433513
427	N	0.204805	0.930785	0.361877
428	H	0.2221	0.926904	0.376733
429	N	0.260826	0.569199	0.642082
430	H	0.247323	0.574729	0.621171
431	C	0.459539	0.706646	0.661524
432	C	0.486738	0.705549	0.638097
433	C	0.021726	0.726203	0.651297
434	C	0.031036	0.748057	0.355902
435	C	0.003443	0.745467	0.383795
436	H	0.040461	0.728198	0.629486
437	H	0.481767	0.693041	0.608004
438	C	0.467524	0.723997	0.370345
439	C	0.011574	0.763395	0.428252
440	H	0.039165	0.776773	0.437531
441	H	0.998203	0.744322	0.454656
442	H	0.00288	0.782694	0.428707
443	C	0.438484	0.716985	0.402223
444	H	0.412492	0.697337	0.39082
445	H	0.438148	0.741211	0.408876
446	H	0.442197	0.706646	0.433406
447	N	0.065499	0.773317	0.36192
448	H	0.069395	0.794459	0.376879
449	N	0.427035	0.69078	0.642045
450	H	0.421588	0.671872	0.620978
451	C	0.16964	0.866809	0.683494
452	C	0.135552	0.836927	0.682953
453	C	0.129468	0.802109	0.683518
454	C	0.159347	0.797902	0.682916
455	C	0.194169	0.826636	0.016805
456	C	0.198375	0.860725	0.682913
457	H	0.155484	0.773041	0.681065
458	H	0.223233	0.88172	0.681032
459	H	0.114554	0.840788	0.681125
460	C	0.174355	0.901266	0.683229
461	C	0.223901	0.821904	0.016494
462	C	0.095003	0.772376	0.683229
463	O	0.25613	0.850596	0.67721
464	O	0.14565	0.9048	0.677383
465	O	0.091463	0.740147	0.677276
466	C	0.313363	0.627524	0.63264
467	C	0.350484	0.647894	0.631975
468	C	0.368767	0.685066	0.632564
469	C	0.348381	0.701807	0.632022
470	C	0.311209	0.682923	0.965956
471	C	0.294467	0.645796	0.632062
472	H	0.361067	0.7285	0.634843
473	H	0.267774	0.631794	0.63492
474	H	0.364494	0.63521	0.634817
475	C	0.296391	0.59073	0.640264
476	C	0.29139	0.69989	0.973629
477	C	0.405563	0.704887	0.640177
478	O	0.256488	0.679761	0.648921
479	O	0.316516	0.575953	0.648888
480	O	0.420328	0.739782	0.648848
481	C	0.289636	0.752151	0.994912
482	C	0.290783	0.780473	0.971492
483	C	0.270128	0.794816	0.984653
484	C	0.248232	0.782264	0.689221
485	C	0.25079	0.757248	0.71713
486	H	0.268157	0.811565	0.962832
487	H	0.303306	0.788004	0.941406
488	C	0.272251	0.742781	0.703711
489	C	0.232833	0.747455	0.761571
490	H	0.219465	0.761681	0.770826
491	H	0.251886	0.753143	0.787995
492	H	0.21352	0.719464	0.762013
493	C	0.279226	0.720738	0.735608
494	H	0.298886	0.714399	0.724239
495	H	0.254993	0.696179	0.742225
496	H	0.289538	0.734779	0.766802
497	N	0.222964	0.791463	0.695193
498	H	0.201813	0.774209	0.710135
499	N	0.305441	0.735459	0.975417
500	H	0.324434	0.74896	0.954463
501	C	0.244086	0.536738	0.994992
502	C	0.215651	0.509596	0.971685
503	C	0.201277	0.97459	0.984862
504	C	0.213941	0.965241	0.689324
505	C	0.239016	0.992807	0.717187
506	H	0.184631	0.95588	0.962961
507	H	0.208172	0.51453	0.941529
508	C	0.253503	0.528732	0.703757
509	C	0.248878	0.984627	0.761567
510	H	0.234618	0.957035	0.770833
511	H	0.24329	0.99803	0.788045
512	H	0.276857	0.993248	0.7619
513	C	0.275632	0.557749	0.735605
514	H	0.281982	0.583753	0.724239
515	H	0.300187	0.558044	0.742142
516	H	0.261653	0.554052	0.766848
517	N	0.204805	0.930785	0.695213
518	H	0.2221	0.926904	0.710065
519	N	0.260826	0.569199	0.975417
520	H	0.247323	0.574729	0.954507
521	C	0.459539	0.706646	0.994856
522	C	0.486738	0.705549	0.971433
523	C	0.021726	0.726203	0.98463
524	C	0.031036	0.748057	0.689234
525	C	0.003443	0.745467	0.717127
526	H	0.040461	0.728198	0.962818
527	H	0.481767	0.693041	0.941336
528	C	0.467524	0.723997	0.703677
529	C	0.011574	0.763395	0.761584
530	H	0.039165	0.776773	0.770866
531	H	0.998203	0.744322	0.787992
532	H	0.00288	0.782694	0.762039
533	C	0.438484	0.716985	0.735555
534	H	0.412492	0.697337	0.724153
535	H	0.438148	0.741211	0.742209
536	H	0.442197	0.706646	0.766739
537	N	0.065499	0.773317	0.695253
538	H	0.069395	0.794459	0.710211
539	N	0.427035	0.69078	0.975378
540	H	0.421588	0.671872	0.954311
541	C	0.669639	0.366809	0.016829
542	C	0.635553	0.336927	0.016285
543	C	0.629467	0.302109	0.01685
544	C	0.659349	0.297902	0.016251
545	C	0.694168	0.326636	0.350139
546	C	0.698374	0.360725	0.016248
547	H	0.655483	0.273041	0.014399
548	H	0.723234	0.38172	0.014365
549	H	0.614553	0.340788	0.01446
550	C	0.674354	0.401266	0.016563
551	C	0.7239	0.321904	0.349826
552	C	0.595004	0.272377	0.016563
553	O	0.756131	0.350596	0.010543
554	O	0.645651	0.4048	0.010716
555	O	0.591463	0.240146	0.010611
556	C	0.813363	0.127524	0.965972
557	C	0.850484	0.147894	0.965308
558	C	0.868768	0.185066	0.965899
559	C	0.84838	0.201806	0.965354
560	C	0.811208	0.182923	0.299288
561	C	0.794467	0.145796	0.965394
562	H	0.861068	0.228501	0.968176
563	H	0.767774	0.131795	0.968252
564	H	0.864495	0.135211	0.968149
565	C	0.796389	0.09073	0.973596
566	C	0.791389	0.19989	0.306963
567	C	0.905563	0.204886	0.97351
568	O	0.756488	0.179762	0.982254
569	O	0.816515	0.075954	0.98222
570	O	0.920327	0.239781	0.982184
571	C	0.789636	0.252151	0.328247
572	C	0.790783	0.280473	0.304825
573	C	0.770128	0.294816	0.317988
574	C	0.748232	0.282264	0.022554
575	C	0.750789	0.257248	0.050464
576	H	0.768157	0.311565	0.296165
577	H	0.803305	0.288004	0.274739
578	C	0.772252	0.242781	0.037045
579	C	0.732834	0.247455	0.094903
580	H	0.719465	0.261682	0.10416
581	H	0.751886	0.253144	0.12133
582	H	0.713522	0.219466	0.095346
583	C	0.779226	0.220739	0.068941
584	H	0.798884	0.214398	0.057574
585	H	0.754992	0.196178	0.075561
586	H	0.789537	0.234779	0.100137
587	N	0.722964	0.291463	0.028527
588	H	0.701813	0.27421	0.043468
589	N	0.805442	0.23546	0.308751
590	H	0.824432	0.24896	0.287797
591	C	0.744086	0.036739	0.328325
592	C	0.715651	0.009596	0.30502
593	C	0.701276	0.47459	0.318197
594	C	0.71394	0.465242	0.022657
595	C	0.739015	0.492807	0.050521
596	H	0.684632	0.45588	0.296295
597	H	0.708173	0.01453	0.274864
598	C	0.753503	0.028732	0.037091
599	C	0.748879	0.484627	0.094902
600	H	0.734617	0.457035	0.104168
601	H	0.743289	0.49803	0.121378
602	H	0.776855	0.493248	0.095234
603	C	0.775631	0.05775	0.06894
604	H	0.781983	0.083753	0.057573
605	H	0.800187	0.058044	0.075476
606	H	0.761654	0.054053	0.100181
607	N	0.704804	0.430785	0.028545
608	H	0.722099	0.426904	0.043399
609	N	0.760826	0.0692	0.30875
610	H	0.747324	0.07473	0.287839
611	C	0.959538	0.206647	0.32819
612	C	0.986736	0.205548	0.304765
613	C	0.521725	0.226203	0.317964
614	C	0.531036	0.248058	0.022568
615	C	0.503442	0.245468	0.050461
616	H	0.540462	0.228199	0.296152
617	H	0.981768	0.193041	0.274669
618	C	0.967524	0.223997	0.037011
619	C	0.511573	0.263395	0.094919
620	H	0.539164	0.276773	0.104198
621	H	0.498202	0.244322	0.121324
622	H	0.502881	0.282694	0.095373
623	C	0.938483	0.216986	0.068889
624	H	0.912491	0.197336	0.057486
625	H	0.938149	0.24121	0.075542
626	H	0.942197	0.206647	0.100072
627	N	0.5655	0.273317	0.028587
628	H	0.569394	0.294459	0.043546
629	N	0.927036	0.19078	0.30871
630	H	0.921587	0.171872	0.287645
631	C	0.669639	0.366809	0.350162
632	C	0.635553	0.336927	0.34962
633	C	0.629467	0.302109	0.350182
634	C	0.659349	0.297902	0.349584
635	C	0.694168	0.326636	0.683471
636	C	0.698374	0.360725	0.34958
637	H	0.655483	0.273041	0.347733
638	H	0.723234	0.38172	0.347699
639	H	0.614553	0.340788	0.347792
640	C	0.674354	0.401266	0.349896
641	C	0.7239	0.321904	0.683159
642	C	0.595004	0.272377	0.349896
643	O	0.756131	0.350596	0.343877
644	O	0.645651	0.4048	0.34405
645	O	0.591463	0.240146	0.343944
646	C	0.813363	0.127524	0.299308
647	C	0.850484	0.147894	0.298641
648	C	0.868768	0.185066	0.299232
649	C	0.84838	0.201806	0.298688
650	C	0.811208	0.182923	0.63262
651	C	0.794467	0.145796	0.298727
652	H	0.861068	0.228501	0.301509
653	H	0.767774	0.131795	0.301587
654	H	0.864495	0.135211	0.301483
655	C	0.796389	0.09073	0.306929
656	C	0.791389	0.19989	0.640297
657	C	0.905563	0.204886	0.306845
658	O	0.756488	0.179762	0.315588
659	O	0.816515	0.075954	0.315555
660	O	0.920327	0.239781	0.315516
661	C	0.789636	0.252151	0.66158
662	C	0.790783	0.280473	0.638157
663	C	0.770128	0.294816	0.651321
664	C	0.748232	0.282264	0.355888
665	C	0.750789	0.257248	0.383798
666	H	0.768157	0.311565	0.629499
667	H	0.803305	0.288004	0.608073
668	C	0.772252	0.242781	0.370378
669	C	0.732834	0.247455	0.428235
670	H	0.719465	0.261682	0.437494
671	H	0.751886	0.253144	0.454663
672	H	0.713522	0.219466	0.428677
673	C	0.779226	0.220739	0.402273
674	H	0.798884	0.214398	0.390907
675	H	0.754992	0.196178	0.408893
676	H	0.789537	0.234779	0.433469
677	N	0.722964	0.291463	0.36186
678	H	0.701813	0.27421	0.376799
679	N	0.805442	0.23546	0.642085
680	H	0.824432	0.24896	0.621131
681	C	0.744086	0.036739	0.661656
682	C	0.715651	0.009596	0.638353
683	C	0.701276	0.47459	0.65153
684	C	0.71394	0.465242	0.355991
685	C	0.739015	0.492807	0.383855
686	H	0.684632	0.45588	0.629629
687	H	0.708173	0.01453	0.608196
688	C	0.753503	0.028732	0.370425
689	C	0.748879	0.484627	0.428235
690	H	0.734617	0.457035	0.437501
691	H	0.743289	0.49803	0.454712
692	H	0.776855	0.493248	0.428567
693	C	0.775631	0.05775	0.402273
694	H	0.781983	0.083753	0.390907
695	H	0.800187	0.058044	0.40881
696	H	0.761654	0.054053	0.433513
697	N	0.704804	0.430785	0.361877
698	H	0.722099	0.426904	0.376733
699	N	0.760826	0.0692	0.642082
700	H	0.747324	0.07473	0.621171
701	C	0.959538	0.206647	0.661524
702	C	0.986736	0.205548	0.638097
703	C	0.521725	0.226203	0.651297
704	C	0.531036	0.248058	0.355902
705	C	0.503442	0.245468	0.383795
706	H	0.540462	0.228199	0.629486
707	H	0.981768	0.193041	0.608004
708	C	0.967524	0.223997	0.370345
709	C	0.511573	0.263395	0.428252
710	H	0.539164	0.276773	0.437531
711	H	0.498202	0.244322	0.454656
712	H	0.502881	0.282694	0.428707
713	C	0.938483	0.216986	0.402223
714	H	0.912491	0.197336	0.39082
715	H	0.938149	0.24121	0.408876
716	H	0.942197	0.206647	0.433406
717	N	0.5655	0.273317	0.36192
718	H	0.569394	0.294459	0.376879
719	N	0.927036	0.19078	0.642045
720	H	0.921587	0.171872	0.620978
721	C	0.669639	0.366809	0.683494
722	C	0.635553	0.336927	0.682953
723	C	0.629467	0.302109	0.683518
724	C	0.659349	0.297902	0.682916
725	C	0.694168	0.326636	0.016805
726	C	0.698374	0.360725	0.682913
727	H	0.655483	0.273041	0.681065
728	H	0.723234	0.38172	0.681032
729	H	0.614553	0.340788	0.681125
730	C	0.674354	0.401266	0.683229
731	C	0.7239	0.321904	0.016494
732	C	0.595004	0.272377	0.683229
733	O	0.756131	0.350596	0.67721
734	O	0.645651	0.4048	0.677383
735	O	0.591463	0.240146	0.677276
736	C	0.813363	0.127524	0.63264
737	C	0.850484	0.147894	0.631975
738	C	0.868768	0.185066	0.632564
739	C	0.84838	0.201806	0.632022
740	C	0.811208	0.182923	0.965956
741	C	0.794467	0.145796	0.632062
742	H	0.861068	0.228501	0.634843
743	H	0.767774	0.131795	0.63492
744	H	0.864495	0.135211	0.634817
745	C	0.796389	0.09073	0.640264
746	C	0.791389	0.19989	0.973629
747	C	0.905563	0.204886	0.640177
748	O	0.756488	0.179762	0.648921
749	O	0.816515	0.075954	0.648888
750	O	0.920327	0.239781	0.648848
751	C	0.789636	0.252151	0.994912
752	C	0.790783	0.280473	0.971492
753	C	0.770128	0.294816	0.984653
754	C	0.748232	0.282264	0.689221
755	C	0.750789	0.257248	0.71713
756	H	0.768157	0.311565	0.962832
757	H	0.803305	0.288004	0.941406
758	C	0.772252	0.242781	0.703711
759	C	0.732834	0.247455	0.761571
760	H	0.719465	0.261682	0.770826
761	H	0.751886	0.253144	0.787995
762	H	0.713522	0.219466	0.762013
763	C	0.779226	0.220739	0.735608
764	H	0.798884	0.214398	0.724239
765	H	0.754992	0.196178	0.742225
766	H	0.789537	0.234779	0.766802
767	N	0.722964	0.291463	0.695193
768	H	0.701813	0.27421	0.710135
769	N	0.805442	0.23546	0.975417
770	H	0.824432	0.24896	0.954463
771	C	0.744086	0.036739	0.994992
772	C	0.715651	0.009596	0.971685
773	C	0.701276	0.47459	0.984862
774	C	0.71394	0.465242	0.689324
775	C	0.739015	0.492807	0.717187
776	H	0.684632	0.45588	0.962961
777	H	0.708173	0.01453	0.941529
778	C	0.753503	0.028732	0.703757
779	C	0.748879	0.484627	0.761567
780	H	0.734617	0.457035	0.770833
781	H	0.743289	0.49803	0.788045
782	H	0.776855	0.493248	0.7619
783	C	0.775631	0.05775	0.735605
784	H	0.781983	0.083753	0.724239
785	H	0.800187	0.058044	0.742142
786	H	0.761654	0.054053	0.766848
787	N	0.704804	0.430785	0.695213
788	H	0.722099	0.426904	0.710065
789	N	0.760826	0.0692	0.975417
790	H	0.747324	0.07473	0.954507
791	C	0.959538	0.206647	0.994856
792	C	0.986736	0.205548	0.971433
793	C	0.521725	0.226203	0.98463
794	C	0.531036	0.248058	0.689234
795	C	0.503442	0.245468	0.717127
796	H	0.540462	0.228199	0.962818
797	H	0.981768	0.193041	0.941336
798	C	0.967524	0.223997	0.703677
799	C	0.511573	0.263395	0.761584
800	H	0.539164	0.276773	0.770866
801	H	0.498202	0.244322	0.787992
802	H	0.502881	0.282694	0.762039
803	C	0.938483	0.216986	0.735555
804	H	0.912491	0.197336	0.724153
805	H	0.938149	0.24121	0.742209
806	H	0.942197	0.206647	0.766739
807	N	0.5655	0.273317	0.695253
808	H	0.569394	0.294459	0.710211
809	N	0.927036	0.19078	0.975378
810	H	0.921587	0.171872	0.954311
811	C	0.66964	0.866809	0.016829
812	C	0.635553	0.836927	0.016285
813	C	0.629468	0.802109	0.01685
814	C	0.659347	0.797902	0.016251
815	C	0.694169	0.826636	0.350139
816	C	0.698375	0.860725	0.016248
817	H	0.655484	0.773041	0.014399
818	H	0.723232	0.88172	0.014365
819	H	0.614554	0.840788	0.01446
820	C	0.674355	0.901266	0.016563
821	C	0.723901	0.821904	0.349826
822	C	0.595004	0.772376	0.016563
823	O	0.75613	0.850596	0.010543
824	O	0.645651	0.9048	0.010716
825	O	0.591463	0.740147	0.010611
826	C	0.813364	0.627524	0.965972
827	C	0.850485	0.647894	0.965308
828	C	0.868766	0.685066	0.965899
829	C	0.848381	0.701807	0.965354
830	C	0.81121	0.682923	0.299288
831	C	0.794465	0.645796	0.965394
832	H	0.861066	0.7285	0.968176
833	H	0.767774	0.631794	0.968252
834	H	0.864495	0.63521	0.968149
835	C	0.796391	0.59073	0.973596
836	C	0.79139	0.69989	0.306963
837	C	0.905563	0.704887	0.97351
838	O	0.756489	0.679761	0.982254
839	O	0.816516	0.575953	0.98222
840	O	0.920329	0.739782	0.982184
841	C	0.789637	0.752151	0.328247
842	C	0.790782	0.780473	0.304825
843	C	0.770126	0.794816	0.317988
844	C	0.748231	0.782264	0.022554
845	C	0.75079	0.757248	0.050464
846	H	0.768158	0.811565	0.296165
847	H	0.803306	0.788004	0.274739
848	C	0.77225	0.742781	0.037045
849	C	0.732833	0.747455	0.094903
850	H	0.719463	0.761681	0.10416
851	H	0.751885	0.753143	0.12133
852	H	0.71352	0.719464	0.095346
853	C	0.779225	0.720738	0.068941
854	H	0.798886	0.714399	0.057574
855	H	0.754992	0.696179	0.075561
856	H	0.789538	0.734779	0.100137
857	N	0.722965	0.791463	0.028527
858	H	0.701812	0.774209	0.043468
859	N	0.805441	0.735459	0.308751
860	H	0.824433	0.74896	0.287797
861	C	0.744085	0.536738	0.328325
862	C	0.715652	0.509596	0.30502
863	C	0.701276	0.97459	0.318197
864	C	0.713941	0.965241	0.022657
865	C	0.739016	0.992807	0.050521
866	H	0.684631	0.95588	0.296295
867	H	0.708171	0.51453	0.274864
868	C	0.753504	0.528732	0.037091
869	C	0.748878	0.984627	0.094902
870	H	0.734618	0.957035	0.104168
871	H	0.74329	0.99803	0.121378
872	H	0.776857	0.993248	0.095234
873	C	0.775632	0.557749	0.06894
874	H	0.781981	0.583753	0.057573
875	H	0.800186	0.558044	0.075476
876	H	0.761652	0.554052	0.100181
877	N	0.704805	0.930785	0.028545
878	H	0.7221	0.926904	0.043399
879	N	0.760827	0.569199	0.30875
880	H	0.747322	0.574729	0.287839
881	C	0.959539	0.706646	0.32819
882	C	0.986738	0.705549	0.304765
883	C	0.521725	0.726203	0.317964
884	C	0.531036	0.748057	0.022568
885	C	0.503442	0.745467	0.050461
886	H	0.540461	0.728198	0.296152
887	H	0.981766	0.693041	0.274669
888	C	0.967522	0.723997	0.037011
889	C	0.511574	0.763395	0.094919
890	H	0.539164	0.776773	0.104198
891	H	0.498203	0.744322	0.121324
892	H	0.502881	0.782694	0.095373
893	C	0.938484	0.716985	0.068889
894	H	0.912492	0.697337	0.057486
895	H	0.938148	0.741211	0.075542
896	H	0.942198	0.706646	0.100072
897	N	0.565499	0.773317	0.028587
898	H	0.569395	0.794459	0.043546
899	N	0.927035	0.69078	0.30871
900	H	0.921588	0.671872	0.287645
901	C	0.66964	0.866809	0.350162
902	C	0.635553	0.836927	0.34962
903	C	0.629468	0.802109	0.350182
904	C	0.659347	0.797902	0.349584
905	C	0.694169	0.826636	0.683471
906	C	0.698375	0.860725	0.34958
907	H	0.655484	0.773041	0.347733
908	H	0.723232	0.88172	0.347699
909	H	0.614554	0.840788	0.347792
910	C	0.674355	0.901266	0.349896
911	C	0.723901	0.821904	0.683159
912	C	0.595004	0.772376	0.349896
913	O	0.75613	0.850596	0.343877
914	O	0.645651	0.9048	0.34405
915	O	0.591463	0.740147	0.343944
916	C	0.813364	0.627524	0.299308
917	C	0.850485	0.647894	0.298641
918	C	0.868766	0.685066	0.299232
919	C	0.848381	0.701807	0.298688
920	C	0.81121	0.682923	0.63262
921	C	0.794465	0.645796	0.298727
922	H	0.861066	0.7285	0.301509
923	H	0.767774	0.631794	0.301587
924	H	0.864495	0.63521	0.301483
925	C	0.796391	0.59073	0.306929
926	C	0.79139	0.69989	0.640297
927	C	0.905563	0.704887	0.306845
928	O	0.756489	0.679761	0.315588
929	O	0.816516	0.575953	0.315555
930	O	0.920329	0.739782	0.315516
931	C	0.789637	0.752151	0.66158
932	C	0.790782	0.780473	0.638157
933	C	0.770126	0.794816	0.651321
934	C	0.748231	0.782264	0.355888
935	C	0.75079	0.757248	0.383798
936	H	0.768158	0.811565	0.629499
937	H	0.803306	0.788004	0.608073
938	C	0.77225	0.742781	0.370378
939	C	0.732833	0.747455	0.428235
940	H	0.719463	0.761681	0.437494
941	H	0.751885	0.753143	0.454663
942	H	0.71352	0.719464	0.428677
943	C	0.779225	0.720738	0.402273
944	H	0.798886	0.714399	0.390907
945	H	0.754992	0.696179	0.408893
946	H	0.789538	0.734779	0.433469
947	N	0.722965	0.791463	0.36186
948	H	0.701812	0.774209	0.376799
949	N	0.805441	0.735459	0.642085
950	H	0.824433	0.74896	0.621131
951	C	0.744085	0.536738	0.661656
952	C	0.715652	0.509596	0.638353
953	C	0.701276	0.97459	0.65153
954	C	0.713941	0.965241	0.355991
955	C	0.739016	0.992807	0.383855
956	H	0.684631	0.95588	0.629629
957	H	0.708171	0.51453	0.608196
958	C	0.753504	0.528732	0.370425
959	C	0.748878	0.984627	0.428235
960	H	0.734618	0.957035	0.437501
961	H	0.74329	0.99803	0.454712
962	H	0.776857	0.993248	0.428567
963	C	0.775632	0.557749	0.402273
964	H	0.781981	0.583753	0.390907
965	H	0.800186	0.558044	0.40881
966	H	0.761652	0.554052	0.433513
967	N	0.704805	0.930785	0.361877
968	H	0.7221	0.926904	0.376733
969	N	0.760827	0.569199	0.642082
970	H	0.747322	0.574729	0.621171
971	C	0.959539	0.706646	0.661524
972	C	0.986738	0.705549	0.638097
973	C	0.521725	0.726203	0.651297
974	C	0.531036	0.748057	0.355902
975	C	0.503442	0.745467	0.383795
976	H	0.540461	0.728198	0.629486
977	H	0.981766	0.693041	0.608004
978	C	0.967522	0.723997	0.370345
979	C	0.511574	0.763395	0.428252
980	H	0.539164	0.776773	0.437531
981	H	0.498203	0.744322	0.454656
982	H	0.502881	0.782694	0.428707
983	C	0.938484	0.716985	0.402223
984	H	0.912492	0.697337	0.39082
985	H	0.938148	0.741211	0.408876
986	H	0.942198	0.706646	0.433406
987	N	0.565499	0.773317	0.36192
988	H	0.569395	0.794459	0.376879
989	N	0.927035	0.69078	0.642045
990	H	0.921588	0.671872	0.620978
991	C	0.66964	0.866809	0.683494
992	C	0.635553	0.836927	0.682953
993	C	0.629468	0.802109	0.683518
994	C	0.659347	0.797902	0.682916
995	C	0.694169	0.826636	0.016805
996	C	0.698375	0.860725	0.682913
997	H	0.655484	0.773041	0.681065
998	H	0.723232	0.88172	0.681032
999	H	0.614554	0.840788	0.681125
1000	C	0.674355	0.901266	0.683229
1001	C	0.723901	0.821904	0.016494
1002	C	0.595004	0.772376	0.683229
1003	O	0.75613	0.850596	0.67721
1004	O	0.645651	0.9048	0.677383
1005	O	0.591463	0.740147	0.677276
1006	C	0.813364	0.627524	0.63264
1007	C	0.850485	0.647894	0.631975
1008	C	0.868766	0.685066	0.632564
1009	C	0.848381	0.701807	0.632022
1010	C	0.81121	0.682923	0.965956
1011	C	0.794465	0.645796	0.632062
1012	H	0.861066	0.7285	0.634843
1013	H	0.767774	0.631794	0.63492
1014	H	0.864495	0.63521	0.634817
1015	C	0.796391	0.59073	0.640264
1016	C	0.79139	0.69989	0.973629
1017	C	0.905563	0.704887	0.640177
1018	O	0.756489	0.679761	0.648921
1019	O	0.816516	0.575953	0.648888
1020	O	0.920329	0.739782	0.648848
1021	C	0.789637	0.752151	0.994912
1022	C	0.790782	0.780473	0.971492
1023	C	0.770126	0.794816	0.984653
1024	C	0.748231	0.782264	0.689221
1025	C	0.75079	0.757248	0.71713
1026	H	0.768158	0.811565	0.962832
1027	H	0.803306	0.788004	0.941406
1028	C	0.77225	0.742781	0.703711
1029	C	0.732833	0.747455	0.761571
1030	H	0.719463	0.761681	0.770826
1031	H	0.751885	0.753143	0.787995
1032	H	0.71352	0.719464	0.762013
1033	C	0.779225	0.720738	0.735608
1034	H	0.798886	0.714399	0.724239
1035	H	0.754992	0.696179	0.742225
1036	H	0.789538	0.734779	0.766802
1037	N	0.722965	0.791463	0.695193
1038	H	0.701812	0.774209	0.710135
1039	N	0.805441	0.735459	0.975417
1040	H	0.824433	0.74896	0.954463
1041	C	0.744085	0.536738	0.994992
1042	C	0.715652	0.509596	0.971685
1043	C	0.701276	0.97459	0.984862
1044	C	0.713941	0.965241	0.689324
1045	C	0.739016	0.992807	0.717187
1046	H	0.684631	0.95588	0.962961
1047	H	0.708171	0.51453	0.941529
1048	C	0.753504	0.528732	0.703757
1049	C	0.748878	0.984627	0.761567
1050	H	0.734618	0.957035	0.770833
1051	H	0.74329	0.99803	0.788045
1052	H	0.776857	0.993248	0.7619
1053	C	0.775632	0.557749	0.735605
1054	H	0.781981	0.583753	0.724239
1055	H	0.800186	0.558044	0.742142
1056	H	0.761652	0.554052	0.766848
1057	N	0.704805	0.930785	0.695213
1058	H	0.7221	0.926904	0.710065
1059	N	0.760827	0.569199	0.975417
1060	H	0.747322	0.574729	0.954507
1061	C	0.959539	0.706646	0.994856
1062	C	0.986738	0.705549	0.971433
1063	C	0.521725	0.726203	0.98463
1064	C	0.531036	0.748057	0.689234
1065	C	0.503442	0.745467	0.717127
1066	H	0.540461	0.728198	0.962818
1067	H	0.981766	0.693041	0.941336
1068	C	0.967522	0.723997	0.703677
1069	C	0.511574	0.763395	0.761584
1070	H	0.539164	0.776773	0.770866
1071	H	0.498203	0.744322	0.787992
1072	H	0.502881	0.782694	0.762039
1073	C	0.938484	0.716985	0.735555
1074	H	0.912492	0.697337	0.724153
1075	H	0.938148	0.741211	0.742209
1076	H	0.942198	0.706646	0.766739
1077	N	0.565499	0.773317	0.695253
1078	H	0.569395	0.794459	0.710211
1079	N	0.927035	0.69078	0.975378
1080	H	0.921588	0.671872	0.954311
