data_C720H504N288_2018-02-15_10:35:47
#******************************************
#
# CIF file created by Zeo++
# Zeo++ is an open source package to
# analyze microporous materials
#
#*******************************************

_cell_length_a		45.682   
_cell_length_b		45.682   
_cell_length_c		29.8076   
_cell_angle_alpha		90   
_cell_angle_beta		90   
_cell_angle_gamma		120   

_symmetry_space_group_name_H-M		'P1'
_symmetry_Int_Tables_number		1
_symmetry_cell_setting		Monoclinic

loop_
_symmetry_equiv_pos_as_xyz
'+x,+y,+z'

loop_
_atom_site_label
_atom_site_type_symbol
_atom_site_fract_x
_atom_site_fract_y
_atom_site_fract_z
1	C	0.020975	0.260658	0.325374
2	C	0.040268	0.296761	0.318544
3	C	0.039995	0.245932	0.008333
4	H	0.02932	0.220414	0.011737
5	N	0.029683	0.311533	0.287539
6	H	0.041606	0.335718	0.282062
7	C	0.020975	0.260658	0.658707
8	C	0.040268	0.296761	0.651877
9	C	0.039995	0.245932	0.341668
10	H	0.02932	0.220414	0.345069
11	N	0.029683	0.311533	0.620871
12	H	0.041606	0.335718	0.615396
13	C	0.020975	0.260658	0.992041
14	C	0.040268	0.296761	0.985211
15	C	0.039995	0.245932	0.675002
16	H	0.02932	0.220414	0.678403
17	N	0.029683	0.311533	0.954205
18	H	0.041606	0.335718	0.94873
19	C	0.020976	0.760659	0.325374
20	C	0.040268	0.796762	0.318544
21	C	0.039995	0.745932	0.008333
22	H	0.02932	0.720415	0.011737
23	N	0.029682	0.811534	0.287539
24	H	0.041606	0.835719	0.282062
25	C	0.020976	0.760659	0.658707
26	C	0.040268	0.796762	0.651877
27	C	0.039995	0.745932	0.341668
28	H	0.02932	0.720415	0.345069
29	N	0.029682	0.811534	0.620871
30	H	0.041606	0.835719	0.615396
31	C	0.020976	0.760659	0.992041
32	C	0.040268	0.796762	0.985211
33	C	0.039995	0.745932	0.675002
34	H	0.02932	0.720415	0.678403
35	N	0.029682	0.811534	0.954205
36	H	0.041606	0.835719	0.94873
37	H	0.012145	0.297924	0.26593
38	H	0.012145	0.297924	0.599263
39	H	0.012145	0.297924	0.932597
40	H	0.012145	0.797925	0.26593
41	H	0.012145	0.797925	0.599263
42	H	0.012145	0.797925	0.932597
43	C	0.071232	0.317142	0.342647
44	C	0.086653	0.300305	0.031001
45	C	0.073558	0.265221	0.023453
46	C	0.103712	0.23398	0.041934
47	C	0.096635	0.25397	0.345868
48	H	0.088762	0.22289	0.069338
49	N	0.107163	0.375562	0.03329
50	C	0.09262	0.352105	4.9e-05
51	N	0.109295	0.359415	0.293564
52	C	0.071232	0.317142	0.675978
53	C	0.086653	0.300305	0.364333
54	C	0.073558	0.265221	0.356788
55	C	0.103712	0.23398	0.375266
56	C	0.096635	0.25397	0.679202
57	H	0.088762	0.22289	0.402672
58	N	0.107163	0.375562	0.366624
59	C	0.09262	0.352105	0.333381
60	N	0.109295	0.359415	0.626897
61	C	0.071232	0.317142	0.009312
62	C	0.086653	0.300305	0.697667
63	C	0.073558	0.265221	0.690119
64	C	0.103712	0.23398	0.7086
65	C	0.096635	0.25397	0.012535
66	H	0.088762	0.22289	0.736006
67	N	0.107163	0.375562	0.699958
68	C	0.09262	0.352105	0.666715
69	N	0.109295	0.359415	0.960231
70	C	0.071233	0.817143	0.342644
71	C	0.086653	0.800306	0.031001
72	C	0.073557	0.765221	0.023453
73	C	0.103712	0.733982	0.041934
74	C	0.096634	0.753971	0.345868
75	H	0.088762	0.72289	0.069338
76	N	0.107163	0.875563	0.03329
77	C	0.09262	0.852106	4.9e-05
78	N	0.109295	0.859416	0.293564
79	C	0.071233	0.817143	0.675978
80	C	0.086653	0.800306	0.364333
81	C	0.073557	0.765221	0.356788
82	C	0.103712	0.733982	0.375266
83	C	0.096634	0.753971	0.679202
84	H	0.088762	0.72289	0.402672
85	N	0.107163	0.875563	0.366624
86	C	0.09262	0.852106	0.333381
87	N	0.109295	0.859416	0.626897
88	C	0.071233	0.817143	0.009312
89	C	0.086653	0.800306	0.697667
90	C	0.073557	0.765221	0.690119
91	C	0.103712	0.733982	0.7086
92	C	0.096634	0.753971	0.012535
93	H	0.088762	0.72289	0.736006
94	N	0.107163	0.875563	0.699958
95	C	0.09262	0.852106	0.666715
96	N	0.109295	0.859416	0.960231
97	N	0.114865	0.316012	0.057485
98	H	0.123772	0.338832	0.401387
99	H	0.12272	0.302942	0.074115
100	N	0.133801	0.234463	0.038996
101	N	0.149961	0.270051	0.310514
102	C	0.120872	0.27105	0.311747
103	H	0.118632	0.287353	0.290395
104	C	0.136442	0.405523	0.027992
105	C	0.138559	0.388706	0.285929
106	H	0.14744	0.41967	0.056063
107	H	0.151108	0.390541	0.256707
108	N	0.114865	0.316012	0.390819
109	H	0.123772	0.338832	0.734718
110	H	0.12272	0.302942	0.407449
111	N	0.133801	0.234463	0.372331
112	N	0.149961	0.270051	0.643849
113	C	0.120872	0.27105	0.64508
114	H	0.118632	0.287353	0.62373
115	C	0.136442	0.405523	0.361327
116	C	0.138559	0.388706	0.619264
117	H	0.14744	0.41967	0.389397
118	H	0.151108	0.390541	0.59004
119	N	0.114865	0.316012	0.724154
120	H	0.123772	0.338832	0.068052
121	H	0.12272	0.302942	0.740783
122	N	0.133801	0.234463	0.705665
123	N	0.149961	0.270051	0.977183
124	C	0.120872	0.27105	0.978414
125	H	0.118632	0.287353	0.95706
126	C	0.136442	0.405523	0.694658
127	C	0.138559	0.388706	0.952598
128	H	0.14744	0.41967	0.722731
129	H	0.151108	0.390541	0.923374
130	N	0.114865	0.816013	0.057485
131	H	0.123773	0.838833	0.401384
132	H	0.12272	0.802942	0.074115
133	N	0.133801	0.734464	0.038996
134	N	0.149962	0.770052	0.310514
135	C	0.120872	0.77105	0.311746
136	H	0.118632	0.787354	0.290394
137	C	0.136442	0.905523	0.027991
138	C	0.138559	0.888707	0.285929
139	H	0.147441	0.919671	0.056062
140	H	0.151109	0.890542	0.256707
141	N	0.114865	0.816013	0.390819
142	H	0.123773	0.838833	0.734718
143	H	0.12272	0.802942	0.407449
144	N	0.133801	0.734464	0.372331
145	N	0.149962	0.770052	0.643849
146	C	0.120872	0.77105	0.64508
147	H	0.118632	0.787354	0.62373
148	C	0.136442	0.905523	0.361324
149	C	0.138559	0.888707	0.619264
150	H	0.147441	0.919671	0.389397
151	H	0.151109	0.890542	0.59004
152	N	0.114865	0.816013	0.724154
153	H	0.123773	0.838833	0.068052
154	H	0.12272	0.802942	0.740783
155	N	0.133801	0.734464	0.705665
156	N	0.149962	0.770052	0.977183
157	C	0.120872	0.77105	0.978414
158	H	0.118632	0.787354	0.95706
159	C	0.136442	0.905523	0.694658
160	C	0.138559	0.888707	0.952595
161	H	0.147441	0.919671	0.722731
162	H	0.151109	0.890542	0.923374
163	C	0.484857	0.240135	0.317984
164	C	0.464564	0.255555	0.989958
165	C	0.429257	0.238236	0.983624
166	C	0.411719	0.202205	0.984345
167	C	0.430575	0.184994	0.314317
168	C	0.46662	0.204213	0.309545
169	H	0.475639	0.280716	0.997302
170	N	0.377443	0.184998	0.991619
171	N	0.48246	0.188409	0.291152
172	H	0.004385	0.20172	0.276956
173	H	0.469817	0.164923	0.281666
174	H	0.512144	0.297924	0.26593
175	H	0.364287	0.160802	0.327639
176	H	0.365353	0.196425	0.000167
177	C	0.264563	0.24585	0.327315
178	C	0.250488	0.21104	0.005565
179	C	0.271095	0.196794	0.014164
180	C	0.305898	0.219446	0.022599
181	C	0.32157	0.252426	0.336608
182	C	0.300048	0.263135	0.31651
183	H	0.225091	0.195472	0.009131
184	N	0.322868	0.207681	0.047833
185	C	0.245008	0.262734	0.330376
186	C	0.20875	0.246748	0.328288
187	C	0.191709	0.263163	0.346945
188	C	0.211103	0.297118	0.02982
189	C	0.246385	0.315853	0.021004
190	C	0.262282	0.298086	0.006062
191	N	0.19603	0.311859	0.053156
192	H	0.288058	0.311783	0.006261
193	N	0.312767	0.288819	0.285888
194	N	0.190743	0.217531	0.30444
195	H	0.297786	0.293394	0.267775
196	H	0.336463	0.300846	0.277364
197	H	0.166362	0.206568	0.301097
198	H	0.202061	0.209834	0.283991
199	H	0.172977	0.298637	0.397019
200	H	0.209217	0.333297	0.068205
201	H	0.345207	0.222737	0.392738
202	H	0.310598	0.186105	0.063307
203	C	0.264268	0.020034	0.32513
204	C	0.299015	0.036729	0.004582
205	C	0.31739	0.070369	0.019991
206	C	0.299184	0.087698	0.02679
207	C	0.266427	0.074782	0.340463
208	C	0.249965	0.041749	0.320591
209	H	0.311544	0.023561	0.007162
210	N	0.313225	0.11677	0.05169
211	C	0.245926	0.483737	0.318388
212	C	0.261679	0.464097	0.307421
213	C	0.244272	0.428436	0.314992
214	C	0.2086	0.41071	0.989146
215	C	0.191103	0.429233	0.989575
216	C	0.210362	0.464812	0.993209
217	N	0.191135	0.376621	0.997708
218	H	0.197482	0.476968	0.001539
219	N	0.222625	0.03245	0.293337
220	N	0.291514	0.478007	0.284297
221	H	0.215329	0.513708	0.272505
222	H	0.21291	0.046837	0.288348
223	H	0.300642	0.464229	0.273059
224	H	0.299855	0.999652	0.269357
225	H	0.201578	0.362818	0.331413
226	H	0.167928	0.365057	0.007776
227	H	0.300102	0.12717	0.393939
228	H	0.333729	0.124159	0.068764
229	C	0.156858	0.251157	0.005884
230	C	0.269017	0.376209	0.040794
231	N	0.267455	0.404135	0.028993
232	C	0.262245	0.410765	0.986117
233	N	0.256336	0.386785	0.288076
234	C	0.257593	0.358323	0.297378
235	C	0.26141	0.350495	0.342228
236	H	0.270491	0.371854	0.074131
237	H	0.249973	0.340351	0.272787
238	C	0.155182	0.412166	0.32112
239	C	0.409136	0.274614	0.016361
240	N	0.380595	0.276666	0.021492
241	C	0.355674	0.265676	0.989995
242	N	0.359603	0.250933	0.285981
243	C	0.387145	0.247759	0.278728
244	C	0.411695	0.256493	0.312868
245	H	0.424671	0.280076	0.043541
246	H	0.386645	0.233638	0.251801
247	C	0.236036	0.134215	0.027309
248	N	0.236065	0.104296	0.025448
249	C	0.256482	0.098963	0.997208
250	N	0.278935	0.125748	0.305648
251	C	0.280829	0.156178	0.306571
252	C	0.260715	0.16262	0.336679
253	H	0.221792	0.137138	0.051404
254	H	0.299549	0.17521	0.288121
255	C	0.377568	0.108483	0.041106
256	N	0.405637	0.137955	0.029354
257	C	0.413165	0.149293	0.986301
258	N	0.389771	0.130345	0.287974
259	C	0.361257	0.100548	0.297206
260	C	0.352394	0.089509	0.342188
261	H	0.372705	0.103174	0.074492
262	H	0.343821	0.089748	0.272062
263	C	0.484857	0.240135	0.651316
264	C	0.464564	0.255555	0.323289
265	C	0.429257	0.238236	0.316957
266	C	0.411719	0.202205	0.317677
267	C	0.430575	0.184994	0.64765
268	C	0.46662	0.204213	0.642879
269	H	0.475639	0.280716	0.330636
270	N	0.377443	0.184998	0.324953
271	N	0.48246	0.188409	0.624484
272	H	0.004385	0.20172	0.61029
273	H	0.469817	0.164923	0.615
274	H	0.512144	0.297924	0.599263
275	H	0.364287	0.160802	0.660972
276	H	0.365353	0.196425	0.3335
277	C	0.264563	0.24585	0.66065
278	C	0.250488	0.21104	0.3389
279	C	0.271095	0.196794	0.347498
280	C	0.305898	0.219446	0.355932
281	C	0.32157	0.252426	0.669939
282	C	0.300048	0.263135	0.649844
283	H	0.225091	0.195472	0.342466
284	N	0.322868	0.207681	0.381168
285	C	0.245008	0.262734	0.663709
286	C	0.20875	0.246748	0.661623
287	C	0.191709	0.263163	0.680279
288	C	0.211103	0.297118	0.363152
289	C	0.246385	0.315853	0.354339
290	C	0.262282	0.298086	0.339396
291	N	0.19603	0.311859	0.386488
292	H	0.288058	0.311783	0.339594
293	N	0.312767	0.288819	0.619221
294	N	0.190743	0.217531	0.637773
295	H	0.297786	0.293394	0.601108
296	H	0.336463	0.300846	0.610699
297	H	0.166362	0.206568	0.634432
298	H	0.202061	0.209834	0.617325
299	H	0.172977	0.298637	0.73035
300	H	0.209217	0.333297	0.401538
301	H	0.345207	0.222737	0.726072
302	H	0.310598	0.186105	0.39664
303	C	0.264268	0.020034	0.658462
304	C	0.299015	0.036729	0.337917
305	C	0.31739	0.070369	0.353326
306	C	0.299184	0.087698	0.360123
307	C	0.266427	0.074782	0.673797
308	C	0.249965	0.041749	0.653923
309	H	0.311544	0.023561	0.340497
310	N	0.313225	0.11677	0.385026
311	C	0.245926	0.483737	0.651722
312	C	0.261679	0.464097	0.640755
313	C	0.244272	0.428436	0.648327
314	C	0.2086	0.41071	0.322478
315	C	0.191103	0.429233	0.322909
316	C	0.210362	0.464812	0.326542
317	N	0.191135	0.376621	0.33104
318	H	0.197482	0.476968	0.334871
319	N	0.222625	0.03245	0.626672
320	N	0.291514	0.478007	0.61763
321	H	0.215329	0.513708	0.605838
322	H	0.21291	0.046837	0.621683
323	H	0.300642	0.464229	0.606392
324	H	0.299855	0.999652	0.602691
325	H	0.201578	0.362818	0.664746
326	H	0.167928	0.365057	0.341111
327	H	0.300102	0.12717	0.72727
328	H	0.333729	0.124159	0.402098
329	C	0.156858	0.251157	0.339219
330	C	0.269017	0.376209	0.374126
331	N	0.267455	0.404135	0.362327
332	C	0.262245	0.410765	0.319451
333	N	0.256336	0.386785	0.621411
334	C	0.257593	0.358323	0.630711
335	C	0.26141	0.350495	0.675562
336	H	0.270491	0.371854	0.407466
337	H	0.249973	0.340351	0.60612
338	C	0.155182	0.412166	0.654453
339	C	0.409136	0.274614	0.349696
340	N	0.380595	0.276666	0.354825
341	C	0.355674	0.265676	0.323326
342	N	0.359603	0.250933	0.619315
343	C	0.387145	0.247759	0.612061
344	C	0.411695	0.256493	0.6462
345	H	0.424671	0.280076	0.376873
346	H	0.386645	0.233638	0.585135
347	C	0.236036	0.134215	0.360643
348	N	0.236065	0.104296	0.358781
349	C	0.256482	0.098963	0.330542
350	N	0.278935	0.125748	0.638981
351	C	0.280829	0.156178	0.639903
352	C	0.260715	0.16262	0.670013
353	H	0.221792	0.137138	0.384737
354	H	0.299549	0.17521	0.621455
355	C	0.377568	0.108483	0.374441
356	N	0.405637	0.137955	0.362689
357	C	0.413165	0.149293	0.319633
358	N	0.389771	0.130345	0.621307
359	C	0.361257	0.100548	0.63054
360	C	0.352394	0.089509	0.675522
361	H	0.372705	0.103174	0.407825
362	H	0.343821	0.089748	0.605395
363	C	0.484857	0.240135	0.984651
364	C	0.464564	0.255555	0.656624
365	C	0.429257	0.238236	0.65029
366	C	0.411719	0.202205	0.651011
367	C	0.430575	0.184994	0.980984
368	C	0.46662	0.204213	0.976213
369	H	0.475639	0.280716	0.663971
370	N	0.377443	0.184998	0.658288
371	N	0.48246	0.188409	0.957819
372	H	0.004385	0.20172	0.943624
373	H	0.469817	0.164923	0.948334
374	H	0.512144	0.297924	0.932597
375	H	0.364287	0.160802	0.994306
376	H	0.365353	0.196425	0.666833
377	C	0.264563	0.24585	0.99398
378	C	0.250488	0.21104	0.672234
379	C	0.271095	0.196794	0.680832
380	C	0.305898	0.219446	0.689266
381	C	0.32157	0.252426	0.003273
382	C	0.300048	0.263135	0.983178
383	H	0.225091	0.195472	0.675797
384	N	0.322868	0.207681	0.714502
385	C	0.245008	0.262734	0.997043
386	C	0.20875	0.246748	0.994957
387	C	0.191709	0.263163	0.013611
388	C	0.211103	0.297118	0.696486
389	C	0.246385	0.315853	0.687673
390	C	0.262282	0.298086	0.67273
391	N	0.19603	0.311859	0.719822
392	H	0.288058	0.311783	0.672928
393	N	0.312767	0.288819	0.952555
394	N	0.190743	0.217531	0.971107
395	H	0.297786	0.293394	0.934442
396	H	0.336463	0.300846	0.94403
397	H	0.166362	0.206568	0.967766
398	H	0.202061	0.209834	0.950659
399	H	0.172977	0.298637	0.063684
400	H	0.209217	0.333297	0.734872
401	H	0.345207	0.222737	0.059405
402	H	0.310598	0.186105	0.729974
403	C	0.264268	0.020034	0.991796
404	C	0.299015	0.036729	0.671251
405	C	0.31739	0.070369	0.68666
406	C	0.299184	0.087698	0.693457
407	C	0.266427	0.074782	0.00713
408	C	0.249965	0.041749	0.987257
409	H	0.311544	0.023561	0.673831
410	N	0.313225	0.11677	0.718356
411	C	0.245926	0.483737	0.985057
412	C	0.261679	0.464097	0.97409
413	C	0.244272	0.428436	0.981658
414	C	0.2086	0.41071	0.655812
415	C	0.191103	0.429233	0.656241
416	C	0.210362	0.464812	0.659875
417	N	0.191135	0.376621	0.664374
418	H	0.197482	0.476968	0.668205
419	N	0.222625	0.03245	0.960006
420	N	0.291514	0.478007	0.950965
421	H	0.215329	0.513708	0.939172
422	H	0.21291	0.046837	0.955014
423	H	0.300642	0.464229	0.939726
424	H	0.299855	0.999652	0.936025
425	H	0.201578	0.362818	0.99808
426	H	0.167928	0.365057	0.674445
427	H	0.300102	0.12717	0.060604
428	H	0.333729	0.124159	0.735433
429	C	0.156858	0.251157	0.672553
430	C	0.269017	0.376209	0.70746
431	N	0.267455	0.404135	0.695661
432	C	0.262245	0.410765	0.652786
433	N	0.256336	0.386785	0.954742
434	C	0.257593	0.358323	0.964045
435	C	0.26141	0.350495	0.008894
436	H	0.270491	0.371854	0.7408
437	H	0.249973	0.340351	0.939454
438	C	0.155182	0.412166	0.987787
439	C	0.409136	0.274614	0.68303
440	N	0.380595	0.276666	0.688159
441	C	0.355674	0.265676	0.656661
442	N	0.359603	0.250933	0.952649
443	C	0.387145	0.247759	0.945396
444	C	0.411695	0.256493	0.979534
445	H	0.424671	0.280076	0.710207
446	H	0.386645	0.233638	0.91847
447	C	0.236036	0.134215	0.693977
448	N	0.236065	0.104296	0.692115
449	C	0.256482	0.098963	0.663877
450	N	0.278935	0.125748	0.972315
451	C	0.280829	0.156178	0.973237
452	C	0.260715	0.16262	0.003347
453	H	0.221792	0.137138	0.718071
454	H	0.299549	0.17521	0.954789
455	C	0.377568	0.108483	0.707772
456	N	0.405637	0.137955	0.69602
457	C	0.413165	0.149293	0.652967
458	N	0.389771	0.130345	0.954641
459	C	0.361257	0.100548	0.963874
460	C	0.352394	0.089509	0.008854
461	H	0.372705	0.103174	0.741159
462	H	0.343821	0.089748	0.938729
463	C	0.484857	0.740136	0.317984
464	C	0.464564	0.755555	0.989958
465	C	0.429258	0.738236	0.983624
466	C	0.411719	0.702206	0.984345
467	C	0.430576	0.684995	0.314317
468	C	0.466619	0.704213	0.309545
469	H	0.47564	0.780716	0.997302
470	N	0.377443	0.684997	0.991619
471	N	0.482461	0.68841	0.291152
472	H	0.004385	0.701721	0.276956
473	H	0.469816	0.664922	0.281666
474	H	0.512145	0.797925	0.26593
475	H	0.364288	0.660802	0.327639
476	H	0.365352	0.696425	0.000167
477	C	0.264563	0.745852	0.327315
478	C	0.250487	0.71104	0.005565
479	C	0.271095	0.696794	0.014164
480	C	0.305898	0.719447	0.022599
481	C	0.32157	0.752426	0.336608
482	C	0.300048	0.763136	0.31651
483	H	0.225091	0.695472	0.009131
484	N	0.322867	0.707681	0.047833
485	C	0.245008	0.762734	0.330376
486	C	0.208751	0.746749	0.328288
487	C	0.191709	0.763164	0.346945
488	C	0.211103	0.797118	0.02982
489	C	0.246385	0.815854	0.021004
490	C	0.262283	0.798086	0.006062
491	N	0.19603	0.81186	0.053155
492	H	0.288058	0.811784	0.006261
493	N	0.312767	0.78882	0.285888
494	N	0.190743	0.717531	0.30444
495	H	0.297786	0.793395	0.267775
496	H	0.336463	0.800847	0.277364
497	H	0.166362	0.706569	0.301097
498	H	0.202061	0.709834	0.283991
499	H	0.172978	0.798637	0.397016
500	H	0.209217	0.833297	0.068205
501	H	0.345208	0.722738	0.392738
502	H	0.310598	0.686104	0.063307
503	C	0.264268	0.520035	0.32513
504	C	0.299016	0.53673	0.004582
505	C	0.317389	0.570369	0.019991
506	C	0.299183	0.587699	0.02679
507	C	0.266426	0.574782	0.340463
508	C	0.249965	0.54175	0.320591
509	H	0.311544	0.523561	0.007162
510	N	0.313226	0.61677	0.05169
511	C	0.245927	0.983738	0.318388
512	C	0.26168	0.964098	0.30742
513	C	0.244272	0.928437	0.314991
514	C	0.208601	0.91071	0.989146
515	C	0.191102	0.929233	0.989575
516	C	0.210363	0.964813	0.993209
517	N	0.191135	0.876622	0.997708
518	H	0.197484	0.976969	0.001539
519	N	0.222625	0.532451	0.293337
520	N	0.291514	0.978008	0.284297
521	H	0.21533	0.013709	0.272505
522	H	0.21291	0.546836	0.288348
523	H	0.300642	0.964229	0.273059
524	H	0.299854	0.499652	0.269357
525	H	0.201579	0.862818	0.331412
526	H	0.167928	0.865058	0.007775
527	H	0.300104	0.627171	0.393939
528	H	0.33373	0.624161	0.068764
529	C	0.156858	0.751157	0.005884
530	C	0.269017	0.87621	0.040794
531	N	0.267455	0.904136	0.028993
532	C	0.262245	0.910766	0.986117
533	N	0.256336	0.886786	0.288076
534	C	0.257594	0.858324	0.297378
535	C	0.261411	0.850496	0.342228
536	H	0.270491	0.871855	0.074131
537	H	0.249973	0.840352	0.272787
538	C	0.155181	0.912166	0.321119
539	C	0.409137	0.774614	0.016361
540	N	0.380594	0.776667	0.021492
541	C	0.355673	0.765676	0.989995
542	N	0.359604	0.750935	0.285981
543	C	0.387146	0.74776	0.278728
544	C	0.411696	0.756493	0.312868
545	H	0.424671	0.780077	0.043541
546	H	0.386644	0.733638	0.251801
547	C	0.236036	0.634216	0.027309
548	N	0.236064	0.604296	0.025448
549	C	0.256483	0.598965	0.997208
550	N	0.278935	0.625748	0.305648
551	C	0.28083	0.656179	0.306571
552	C	0.260714	0.66262	0.336679
553	H	0.221792	0.637138	0.051404
554	H	0.299549	0.67521	0.288121
555	C	0.377568	0.608484	0.041106
556	N	0.405638	0.637954	0.029354
557	C	0.413166	0.649294	0.986301
558	N	0.389772	0.630346	0.287974
559	C	0.361256	0.60055	0.297206
560	C	0.352394	0.589509	0.342188
561	H	0.372705	0.603173	0.074492
562	H	0.343822	0.589749	0.272062
563	C	0.484857	0.740136	0.651316
564	C	0.464564	0.755555	0.323289
565	C	0.429258	0.738236	0.316957
566	C	0.411719	0.702206	0.317677
567	C	0.430576	0.684995	0.64765
568	C	0.466619	0.704213	0.642879
569	H	0.47564	0.780716	0.330636
570	N	0.377443	0.684997	0.324953
571	N	0.482461	0.68841	0.624484
572	H	0.004385	0.701721	0.61029
573	H	0.469816	0.664922	0.615
574	H	0.512145	0.797925	0.599263
575	H	0.364288	0.660802	0.660972
576	H	0.365352	0.696425	0.3335
577	C	0.264563	0.745852	0.66065
578	C	0.250487	0.71104	0.3389
579	C	0.271095	0.696794	0.347498
580	C	0.305898	0.719447	0.355932
581	C	0.32157	0.752426	0.669939
582	C	0.300048	0.763136	0.649844
583	H	0.225091	0.695472	0.342466
584	N	0.322867	0.707681	0.381168
585	C	0.245008	0.762734	0.663709
586	C	0.208751	0.746749	0.661623
587	C	0.191709	0.763164	0.680279
588	C	0.211103	0.797118	0.363152
589	C	0.246385	0.815854	0.354339
590	C	0.262283	0.798086	0.339396
591	N	0.19603	0.81186	0.386488
592	H	0.288058	0.811784	0.339594
593	N	0.312767	0.78882	0.619221
594	N	0.190743	0.717531	0.637773
595	H	0.297786	0.793395	0.601108
596	H	0.336463	0.800847	0.610699
597	H	0.166362	0.706569	0.634432
598	H	0.202061	0.709834	0.617325
599	H	0.172978	0.798637	0.73035
600	H	0.209217	0.833297	0.401538
601	H	0.345208	0.722738	0.726072
602	H	0.310598	0.686104	0.39664
603	C	0.264268	0.520035	0.658462
604	C	0.299016	0.53673	0.337917
605	C	0.317389	0.570369	0.353326
606	C	0.299183	0.587699	0.360123
607	C	0.266426	0.574782	0.673797
608	C	0.249965	0.54175	0.653923
609	H	0.311544	0.523561	0.340497
610	N	0.313226	0.61677	0.385022
611	C	0.245927	0.983738	0.651722
612	C	0.26168	0.964098	0.640755
613	C	0.244272	0.928437	0.648324
614	C	0.208601	0.91071	0.322478
615	C	0.191102	0.929233	0.322909
616	C	0.210363	0.964813	0.326541
617	N	0.191135	0.876622	0.331039
618	H	0.197484	0.976969	0.334871
619	N	0.222625	0.532451	0.626672
620	N	0.291514	0.978008	0.61763
621	H	0.21533	0.013709	0.605838
622	H	0.21291	0.546836	0.621683
623	H	0.300642	0.964229	0.606392
624	H	0.299854	0.499652	0.602691
625	H	0.201579	0.862818	0.664746
626	H	0.167928	0.865058	0.341107
627	H	0.300104	0.627171	0.72727
628	H	0.33373	0.624161	0.402098
629	C	0.156858	0.751157	0.339219
630	C	0.269017	0.87621	0.374126
631	N	0.267455	0.904136	0.362327
632	C	0.262245	0.910766	0.31945
633	N	0.256336	0.886786	0.621411
634	C	0.257594	0.858324	0.630711
635	C	0.261411	0.850496	0.675562
636	H	0.270491	0.871855	0.407466
637	H	0.249973	0.840352	0.60612
638	C	0.155181	0.912166	0.654453
639	C	0.409137	0.774614	0.349696
640	N	0.380594	0.776667	0.354825
641	C	0.355673	0.765676	0.323326
642	N	0.359604	0.750935	0.619315
643	C	0.387146	0.74776	0.612061
644	C	0.411696	0.756493	0.6462
645	H	0.424671	0.780077	0.376873
646	H	0.386644	0.733638	0.585135
647	C	0.236036	0.634216	0.360643
648	N	0.236064	0.604296	0.358781
649	C	0.256483	0.598965	0.330542
650	N	0.278935	0.625748	0.638981
651	C	0.28083	0.656179	0.639903
652	C	0.260714	0.66262	0.670013
653	H	0.221792	0.637138	0.384737
654	H	0.299549	0.67521	0.621455
655	C	0.377568	0.608484	0.374441
656	N	0.405638	0.637954	0.362689
657	C	0.413166	0.649294	0.319633
658	N	0.389772	0.630346	0.621307
659	C	0.361256	0.60055	0.63054
660	C	0.352394	0.589509	0.675522
661	H	0.372705	0.603173	0.407825
662	H	0.343822	0.589749	0.605395
663	C	0.484857	0.740136	0.984651
664	C	0.464564	0.755555	0.656624
665	C	0.429258	0.738236	0.65029
666	C	0.411719	0.702206	0.651011
667	C	0.430576	0.684995	0.980984
668	C	0.466619	0.704213	0.976213
669	H	0.47564	0.780716	0.663971
670	N	0.377443	0.684997	0.658288
671	N	0.482461	0.68841	0.957819
672	H	0.004385	0.701721	0.943624
673	H	0.469816	0.664922	0.948334
674	H	0.512145	0.797925	0.932597
675	H	0.364288	0.660802	0.994306
676	H	0.365352	0.696425	0.666833
677	C	0.264563	0.745852	0.99398
678	C	0.250487	0.71104	0.672234
679	C	0.271095	0.696794	0.680832
680	C	0.305898	0.719447	0.689266
681	C	0.32157	0.752426	0.003273
682	C	0.300048	0.763136	0.983178
683	H	0.225091	0.695472	0.6758
684	N	0.322867	0.707681	0.714502
685	C	0.245008	0.762734	0.997043
686	C	0.208751	0.746749	0.994957
687	C	0.191709	0.763164	0.013611
688	C	0.211103	0.797118	0.696486
689	C	0.246385	0.815854	0.687673
690	C	0.262283	0.798086	0.67273
691	N	0.19603	0.81186	0.719822
692	H	0.288058	0.811784	0.672928
693	N	0.312767	0.78882	0.952555
694	N	0.190743	0.717531	0.971107
695	H	0.297786	0.793395	0.934442
696	H	0.336463	0.800847	0.94403
697	H	0.166362	0.706569	0.967766
698	H	0.202061	0.709834	0.950659
699	H	0.172978	0.798637	0.063684
700	H	0.209217	0.833297	0.734872
701	H	0.345208	0.722738	0.059405
702	H	0.310598	0.686104	0.729974
703	C	0.264268	0.520035	0.991796
704	C	0.299016	0.53673	0.671251
705	C	0.317389	0.570369	0.68666
706	C	0.299183	0.587699	0.693457
707	C	0.266426	0.574782	0.00713
708	C	0.249965	0.54175	0.987257
709	H	0.311544	0.523561	0.673831
710	N	0.313226	0.61677	0.718356
711	C	0.245927	0.983738	0.985057
712	C	0.26168	0.964098	0.974086
713	C	0.244272	0.928437	0.981658
714	C	0.208601	0.91071	0.655812
715	C	0.191102	0.929233	0.656241
716	C	0.210363	0.964813	0.659875
717	N	0.191135	0.876622	0.664374
718	H	0.197484	0.976969	0.668205
719	N	0.222625	0.532451	0.960006
720	N	0.291514	0.978008	0.950965
721	H	0.21533	0.013709	0.939172
722	H	0.21291	0.546836	0.955014
723	H	0.300642	0.964229	0.939726
724	H	0.299854	0.499652	0.936025
725	H	0.201579	0.862818	0.99808
726	H	0.167928	0.865058	0.674441
727	H	0.300104	0.627171	0.060604
728	H	0.33373	0.624161	0.735433
729	C	0.156858	0.751157	0.672549
730	C	0.269017	0.87621	0.70746
731	N	0.267455	0.904136	0.695661
732	C	0.262245	0.910766	0.652783
733	N	0.256336	0.886786	0.954742
734	C	0.257594	0.858324	0.964045
735	C	0.261411	0.850496	0.008894
736	H	0.270491	0.871855	0.7408
737	H	0.249973	0.840352	0.939454
738	C	0.155181	0.912166	0.987787
739	C	0.409137	0.774614	0.68303
740	N	0.380594	0.776667	0.688159
741	C	0.355673	0.765676	0.656661
742	N	0.359604	0.750935	0.952649
743	C	0.387146	0.74776	0.945396
744	C	0.411696	0.756493	0.979534
745	H	0.424671	0.780077	0.710207
746	H	0.386644	0.733638	0.91847
747	C	0.236036	0.634216	0.693977
748	N	0.236064	0.604296	0.692115
749	C	0.256483	0.598965	0.663877
750	N	0.278935	0.625748	0.972315
751	C	0.28083	0.656179	0.973237
752	C	0.260714	0.66262	0.003347
753	H	0.221792	0.637138	0.718071
754	H	0.299549	0.67521	0.954789
755	C	0.377568	0.608484	0.707772
756	N	0.405638	0.637954	0.69602
757	C	0.413166	0.649294	0.652967
758	N	0.389772	0.630346	0.954641
759	C	0.361256	0.60055	0.963874
760	C	0.352394	0.589509	0.008854
761	H	0.372705	0.603173	0.741159
762	H	0.343822	0.589749	0.938729
763	C	0.984857	0.240135	0.317984
764	C	0.964564	0.255555	0.989958
765	C	0.929257	0.238236	0.983624
766	C	0.911719	0.202205	0.984345
767	C	0.930575	0.184994	0.314317
768	C	0.96662	0.204213	0.309545
769	H	0.975641	0.280716	0.997302
770	N	0.877445	0.184998	0.991619
771	C	0.520975	0.260658	0.325374
772	C	0.540268	0.296761	0.318544
773	C	0.571233	0.317142	0.342647
774	C	0.586653	0.300305	0.031001
775	C	0.573559	0.265221	0.023453
776	C	0.539995	0.245932	0.008333
777	N	0.614864	0.316012	0.057485
778	H	0.529319	0.220414	0.011737
779	N	0.98246	0.188409	0.291152
780	N	0.529684	0.311533	0.287539
781	H	0.504385	0.20172	0.276956
782	H	0.969817	0.164923	0.281666
783	H	0.541606	0.335718	0.282062
784	H	0.623772	0.338832	0.401387
785	H	0.62272	0.302942	0.074115
786	H	0.864287	0.160802	0.327639
787	H	0.865353	0.196425	0.000167
788	C	0.764563	0.24585	0.327315
789	C	0.750488	0.21104	0.005565
790	C	0.771095	0.196794	0.014164
791	C	0.805899	0.219446	0.022599
792	C	0.82157	0.252426	0.336608
793	C	0.800048	0.263135	0.31651
794	H	0.72509	0.195472	0.009131
795	N	0.822868	0.207681	0.047833
796	C	0.745009	0.262734	0.330376
797	C	0.708751	0.246748	0.328288
798	C	0.691708	0.263163	0.346945
799	C	0.711102	0.297118	0.02982
800	C	0.746386	0.315853	0.021004
801	C	0.762282	0.298086	0.006062
802	N	0.696031	0.311859	0.053156
803	H	0.788058	0.311783	0.006261
804	N	0.812767	0.288819	0.285888
805	N	0.690743	0.217531	0.30444
806	H	0.797787	0.293394	0.267775
807	H	0.836463	0.300846	0.277364
808	H	0.666362	0.206568	0.301097
809	H	0.70206	0.209834	0.283991
810	H	0.672978	0.298637	0.397019
811	H	0.709216	0.333297	0.068205
812	H	0.845209	0.222737	0.392738
813	H	0.810598	0.186105	0.063307
814	C	0.764268	0.020034	0.32513
815	C	0.799015	0.036729	0.004582
816	C	0.81739	0.070369	0.019991
817	C	0.799184	0.087698	0.02679
818	C	0.766427	0.074782	0.340463
819	C	0.749965	0.041749	0.320591
820	H	0.811544	0.023561	0.007162
821	N	0.813227	0.11677	0.05169
822	C	0.745927	0.483737	0.318388
823	C	0.76168	0.464097	0.307421
824	C	0.744272	0.428436	0.314992
825	C	0.708601	0.41071	0.989146
826	C	0.691104	0.429233	0.989575
827	C	0.710363	0.464812	0.993209
828	N	0.691137	0.376621	0.997708
829	H	0.697483	0.476968	0.001539
830	N	0.722626	0.03245	0.293337
831	N	0.791514	0.478007	0.284297
832	H	0.71533	0.513708	0.272505
833	H	0.712911	0.046837	0.288348
834	H	0.800642	0.464229	0.273059
835	H	0.799855	0.999652	0.269357
836	H	0.701579	0.362818	0.331413
837	H	0.667928	0.365057	0.007776
838	H	0.800105	0.12717	0.393939
839	H	0.833729	0.124159	0.068764
840	C	0.603711	0.23398	0.041934
841	N	0.633802	0.234463	0.038996
842	C	0.656858	0.251157	0.005884
843	N	0.649961	0.270051	0.310514
844	C	0.620874	0.27105	0.311747
845	C	0.596636	0.25397	0.345868
846	H	0.588762	0.22289	0.069338
847	H	0.618632	0.287353	0.290395
848	C	0.769016	0.376209	0.040794
849	N	0.767454	0.404135	0.028993
850	C	0.762245	0.410765	0.986117
851	N	0.756336	0.386785	0.288076
852	C	0.757593	0.358323	0.297378
853	C	0.761411	0.350495	0.342228
854	H	0.770492	0.371854	0.074131
855	H	0.749973	0.340351	0.272787
856	C	0.636442	0.405523	0.027992
857	N	0.607163	0.375562	0.03329
858	C	0.592619	0.352105	4.9e-05
859	N	0.609295	0.359415	0.293564
860	C	0.638559	0.388706	0.285929
861	C	0.655183	0.412166	0.32112
862	H	0.647441	0.41967	0.056063
863	H	0.651109	0.390541	0.256707
864	C	0.909138	0.274614	0.016361
865	N	0.880595	0.276666	0.021492
866	C	0.855674	0.265676	0.989995
867	N	0.859605	0.250933	0.285981
868	C	0.887145	0.247759	0.278728
869	C	0.911697	0.256493	0.312868
870	H	0.924671	0.280076	0.043541
871	H	0.886645	0.233638	0.251801
872	C	0.736036	0.134215	0.027309
873	N	0.736065	0.104296	0.025448
874	C	0.756482	0.098963	0.997208
875	N	0.778935	0.125748	0.305648
876	C	0.780829	0.156178	0.306571
877	C	0.760715	0.16262	0.336679
878	H	0.721791	0.137138	0.051404
879	H	0.799548	0.17521	0.288121
880	C	0.877568	0.108483	0.041106
881	N	0.905637	0.137955	0.029354
882	C	0.913165	0.149293	0.986301
883	N	0.889771	0.130345	0.287974
884	C	0.861257	0.100548	0.297206
885	C	0.852394	0.089509	0.342188
886	H	0.872705	0.103174	0.074492
887	H	0.843823	0.089748	0.272062
888	C	0.984857	0.240135	0.651316
889	C	0.964564	0.255555	0.323289
890	C	0.929257	0.238236	0.316957
891	C	0.911719	0.202205	0.317677
892	C	0.930575	0.184994	0.64765
893	C	0.96662	0.204213	0.642879
894	H	0.975641	0.280716	0.330636
895	N	0.877445	0.184998	0.324953
896	C	0.520975	0.260658	0.658707
897	C	0.540268	0.296761	0.651877
898	C	0.571233	0.317142	0.675978
899	C	0.586653	0.300305	0.364333
900	C	0.573559	0.265221	0.356788
901	C	0.539995	0.245932	0.341668
902	N	0.614864	0.316012	0.390819
903	H	0.529319	0.220414	0.345069
904	N	0.98246	0.188409	0.624484
905	N	0.529684	0.311533	0.620871
906	H	0.504385	0.20172	0.61029
907	H	0.969817	0.164923	0.615
908	H	0.541606	0.335718	0.615396
909	H	0.623772	0.338832	0.734718
910	H	0.62272	0.302942	0.407449
911	H	0.864287	0.160802	0.660972
912	H	0.865353	0.196425	0.3335
913	C	0.764563	0.24585	0.66065
914	C	0.750488	0.21104	0.3389
915	C	0.771095	0.196794	0.347498
916	C	0.805899	0.219446	0.355932
917	C	0.82157	0.252426	0.669939
918	C	0.800048	0.263135	0.649844
919	H	0.72509	0.195472	0.342466
920	N	0.822868	0.207681	0.381168
921	C	0.745009	0.262734	0.663709
922	C	0.708751	0.246748	0.661623
923	C	0.691708	0.263163	0.680279
924	C	0.711102	0.297118	0.363152
925	C	0.746386	0.315853	0.354339
926	C	0.762282	0.298086	0.339396
927	N	0.696031	0.311859	0.386488
928	H	0.788058	0.311783	0.339594
929	N	0.812767	0.288819	0.619221
930	N	0.690743	0.217531	0.637773
931	H	0.797787	0.293394	0.601108
932	H	0.836463	0.300846	0.610699
933	H	0.666362	0.206568	0.634432
934	H	0.70206	0.209834	0.617325
935	H	0.672978	0.298637	0.73035
936	H	0.709216	0.333297	0.401538
937	H	0.845209	0.222737	0.726072
938	H	0.810598	0.186105	0.39664
939	C	0.764268	0.020034	0.658462
940	C	0.799015	0.036729	0.337917
941	C	0.81739	0.070369	0.353326
942	C	0.799184	0.087698	0.360123
943	C	0.766427	0.074782	0.673797
944	C	0.749965	0.041749	0.653923
945	H	0.811544	0.023561	0.340497
946	N	0.813227	0.11677	0.385026
947	C	0.745927	0.483737	0.651722
948	C	0.76168	0.464097	0.640755
949	C	0.744272	0.428436	0.648327
950	C	0.708601	0.41071	0.322478
951	C	0.691104	0.429233	0.322909
952	C	0.710363	0.464812	0.326542
953	N	0.691137	0.376621	0.33104
954	H	0.697483	0.476968	0.334871
955	N	0.722626	0.03245	0.626672
956	N	0.791514	0.478007	0.61763
957	H	0.71533	0.513708	0.605838
958	H	0.712911	0.046837	0.621683
959	H	0.800642	0.464229	0.606392
960	H	0.799855	0.999652	0.602691
961	H	0.701579	0.362818	0.664746
962	H	0.667928	0.365057	0.341111
963	H	0.800105	0.12717	0.72727
964	H	0.833729	0.124159	0.402098
965	C	0.603711	0.23398	0.375266
966	N	0.633802	0.234463	0.372331
967	C	0.656858	0.251157	0.339219
968	N	0.649961	0.270051	0.643849
969	C	0.620874	0.27105	0.64508
970	C	0.596636	0.25397	0.679202
971	H	0.588762	0.22289	0.402672
972	H	0.618632	0.287353	0.62373
973	C	0.769016	0.376209	0.374126
974	N	0.767454	0.404135	0.362327
975	C	0.762245	0.410765	0.319451
976	N	0.756336	0.386785	0.621411
977	C	0.757593	0.358323	0.630711
978	C	0.761411	0.350495	0.675562
979	H	0.770492	0.371854	0.407466
980	H	0.749973	0.340351	0.60612
981	C	0.636442	0.405523	0.361327
982	N	0.607163	0.375562	0.366624
983	C	0.592619	0.352105	0.333381
984	N	0.609295	0.359415	0.626897
985	C	0.638559	0.388706	0.619264
986	C	0.655183	0.412166	0.654453
987	H	0.647441	0.41967	0.389397
988	H	0.651109	0.390541	0.59004
989	C	0.909138	0.274614	0.349696
990	N	0.880595	0.276666	0.354825
991	C	0.855674	0.265676	0.323326
992	N	0.859605	0.250933	0.619315
993	C	0.887145	0.247759	0.612061
994	C	0.911697	0.256493	0.6462
995	H	0.924671	0.280076	0.376873
996	H	0.886645	0.233638	0.585135
997	C	0.736036	0.134215	0.360643
998	N	0.736065	0.104296	0.358781
999	C	0.756482	0.098963	0.330542
1000	N	0.778935	0.125748	0.638981
1001	C	0.780829	0.156178	0.639903
1002	C	0.760715	0.16262	0.670013
1003	H	0.721791	0.137138	0.384737
1004	H	0.799548	0.17521	0.621455
1005	C	0.877568	0.108483	0.374441
1006	N	0.905637	0.137955	0.362689
1007	C	0.913165	0.149293	0.319633
1008	N	0.889771	0.130345	0.621307
1009	C	0.861257	0.100548	0.63054
1010	C	0.852394	0.089509	0.675522
1011	H	0.872705	0.103174	0.407825
1012	H	0.843823	0.089748	0.605395
1013	C	0.984857	0.240135	0.984651
1014	C	0.964564	0.255555	0.656624
1015	C	0.929257	0.238236	0.65029
1016	C	0.911719	0.202205	0.651011
1017	C	0.930575	0.184994	0.980984
1018	C	0.96662	0.204213	0.976213
1019	H	0.975641	0.280716	0.663971
1020	N	0.877445	0.184998	0.658288
1021	C	0.520975	0.260658	0.992041
1022	C	0.540268	0.296761	0.985211
1023	C	0.571233	0.317142	0.009312
1024	C	0.586653	0.300305	0.697667
1025	C	0.573559	0.265221	0.690119
1026	C	0.539995	0.245932	0.675002
1027	N	0.614864	0.316012	0.724154
1028	H	0.529319	0.220414	0.678403
1029	N	0.98246	0.188409	0.957819
1030	N	0.529684	0.311533	0.954205
1031	H	0.504385	0.20172	0.943624
1032	H	0.969817	0.164923	0.948334
1033	H	0.541606	0.335718	0.94873
1034	H	0.623772	0.338832	0.068052
1035	H	0.62272	0.302942	0.740783
1036	H	0.864287	0.160802	0.994306
1037	H	0.865353	0.196425	0.666833
1038	C	0.764563	0.24585	0.99398
1039	C	0.750488	0.21104	0.672234
1040	C	0.771095	0.196794	0.680832
1041	C	0.805899	0.219446	0.689266
1042	C	0.82157	0.252426	0.003273
1043	C	0.800048	0.263135	0.983178
1044	H	0.72509	0.195472	0.675797
1045	N	0.822868	0.207681	0.714502
1046	C	0.745009	0.262734	0.997043
1047	C	0.708751	0.246748	0.994957
1048	C	0.691708	0.263163	0.013611
1049	C	0.711102	0.297118	0.696486
1050	C	0.746386	0.315853	0.687673
1051	C	0.762282	0.298086	0.67273
1052	N	0.696031	0.311859	0.719822
1053	H	0.788058	0.311783	0.672928
1054	N	0.812767	0.288819	0.952555
1055	N	0.690743	0.217531	0.971107
1056	H	0.797787	0.293394	0.934442
1057	H	0.836463	0.300846	0.94403
1058	H	0.666362	0.206568	0.967766
1059	H	0.70206	0.209834	0.950659
1060	H	0.672978	0.298637	0.063684
1061	H	0.709216	0.333297	0.734872
1062	H	0.845209	0.222737	0.059405
1063	H	0.810598	0.186105	0.729974
1064	C	0.764268	0.020034	0.991796
1065	C	0.799015	0.036729	0.671251
1066	C	0.81739	0.070369	0.68666
1067	C	0.799184	0.087698	0.693457
1068	C	0.766427	0.074782	0.00713
1069	C	0.749965	0.041749	0.987257
1070	H	0.811544	0.023561	0.673831
1071	N	0.813227	0.11677	0.718356
1072	C	0.745927	0.483737	0.985057
1073	C	0.76168	0.464097	0.97409
1074	C	0.744272	0.428436	0.981658
1075	C	0.708601	0.41071	0.655812
1076	C	0.691104	0.429233	0.656241
1077	C	0.710363	0.464812	0.659875
1078	N	0.691137	0.376621	0.664374
1079	H	0.697483	0.476968	0.668205
1080	N	0.722626	0.03245	0.960006
1081	N	0.791514	0.478007	0.950965
1082	H	0.71533	0.513708	0.939172
1083	H	0.712911	0.046837	0.955014
1084	H	0.800642	0.464229	0.939726
1085	H	0.799855	0.999652	0.936025
1086	H	0.701579	0.362818	0.99808
1087	H	0.667928	0.365057	0.674445
1088	H	0.800105	0.12717	0.060604
1089	H	0.833729	0.124159	0.735433
1090	C	0.603711	0.23398	0.7086
1091	N	0.633802	0.234463	0.705665
1092	C	0.656858	0.251157	0.672553
1093	N	0.649961	0.270051	0.977183
1094	C	0.620874	0.27105	0.978414
1095	C	0.596636	0.25397	0.012535
1096	H	0.588762	0.22289	0.736006
1097	H	0.618632	0.287353	0.95706
1098	C	0.769016	0.376209	0.70746
1099	N	0.767454	0.404135	0.695661
1100	C	0.762245	0.410765	0.652786
1101	N	0.756336	0.386785	0.954742
1102	C	0.757593	0.358323	0.964045
1103	C	0.761411	0.350495	0.008894
1104	H	0.770492	0.371854	0.7408
1105	H	0.749973	0.340351	0.939454
1106	C	0.636442	0.405523	0.694658
1107	N	0.607163	0.375562	0.699958
1108	C	0.592619	0.352105	0.666715
1109	N	0.609295	0.359415	0.960231
1110	C	0.638559	0.388706	0.952598
1111	C	0.655183	0.412166	0.987787
1112	H	0.647441	0.41967	0.722731
1113	H	0.651109	0.390541	0.923374
1114	C	0.909138	0.274614	0.68303
1115	N	0.880595	0.276666	0.688159
1116	C	0.855674	0.265676	0.656661
1117	N	0.859605	0.250933	0.952649
1118	C	0.887145	0.247759	0.945396
1119	C	0.911697	0.256493	0.979534
1120	H	0.924671	0.280076	0.710207
1121	H	0.886645	0.233638	0.91847
1122	C	0.736036	0.134215	0.693977
1123	N	0.736065	0.104296	0.692115
1124	C	0.756482	0.098963	0.663877
1125	N	0.778935	0.125748	0.972315
1126	C	0.780829	0.156178	0.973237
1127	C	0.760715	0.16262	0.003347
1128	H	0.721791	0.137138	0.718071
1129	H	0.799548	0.17521	0.954789
1130	C	0.877568	0.108483	0.707772
1131	N	0.905637	0.137955	0.69602
1132	C	0.913165	0.149293	0.652967
1133	N	0.889771	0.130345	0.954641
1134	C	0.861257	0.100548	0.963874
1135	C	0.852394	0.089509	0.008854
1136	H	0.872705	0.103174	0.741159
1137	H	0.843823	0.089748	0.938729
1138	C	0.984857	0.740136	0.317984
1139	C	0.964565	0.755555	0.989958
1140	C	0.929257	0.738236	0.983624
1141	C	0.91172	0.702206	0.984345
1142	C	0.930576	0.684995	0.314317
1143	C	0.96662	0.704213	0.309545
1144	H	0.975639	0.780716	0.997302
1145	N	0.877442	0.684997	0.991619
1146	C	0.520976	0.760659	0.325374
1147	C	0.540268	0.796762	0.318544
1148	C	0.571232	0.817143	0.342644
1149	C	0.586654	0.800306	0.031001
1150	C	0.573558	0.765221	0.023453
1151	C	0.539995	0.745932	0.008333
1152	N	0.614865	0.816013	0.057485
1153	H	0.529321	0.720415	0.011737
1154	N	0.982461	0.68841	0.291152
1155	N	0.529683	0.811534	0.287539
1156	H	0.504384	0.701721	0.276956
1157	H	0.969817	0.664922	0.281666
1158	H	0.541607	0.835719	0.282062
1159	H	0.623772	0.838833	0.401384
1160	H	0.62272	0.802942	0.074115
1161	H	0.864288	0.660802	0.327639
1162	H	0.865353	0.696425	0.000167
1163	C	0.764564	0.745852	0.327315
1164	C	0.750487	0.71104	0.005565
1165	C	0.771095	0.696794	0.014164
1166	C	0.805899	0.719447	0.022599
1167	C	0.82157	0.752426	0.336608
1168	C	0.800048	0.763136	0.31651
1169	H	0.72509	0.695472	0.009131
1170	N	0.822868	0.707681	0.047833
1171	C	0.745009	0.762734	0.330376
1172	C	0.708752	0.746749	0.328288
1173	C	0.691708	0.763164	0.346945
1174	C	0.711102	0.797118	0.02982
1175	C	0.746384	0.815854	0.021004
1176	C	0.762283	0.798086	0.006062
1177	N	0.696031	0.81186	0.053155
1178	H	0.788058	0.811784	0.006261
1179	N	0.812767	0.78882	0.285888
1180	N	0.690743	0.717531	0.30444
1181	H	0.797788	0.793395	0.267775
1182	H	0.836464	0.800847	0.277364
1183	H	0.666362	0.706569	0.301097
1184	H	0.702061	0.709834	0.283991
1185	H	0.672978	0.798637	0.397016
1186	H	0.709217	0.833297	0.068205
1187	H	0.84521	0.722738	0.392738
1188	H	0.810597	0.686104	0.063307
1189	C	0.764269	0.520035	0.32513
1190	C	0.799016	0.53673	0.004582
1191	C	0.81739	0.570369	0.019991
1192	C	0.799184	0.587699	0.02679
1193	C	0.766427	0.574782	0.340463
1194	C	0.749965	0.54175	0.320591
1195	H	0.811544	0.523561	0.007162
1196	N	0.813225	0.61677	0.05169
1197	C	0.745927	0.983738	0.318388
1198	C	0.76168	0.964098	0.30742
1199	C	0.744272	0.928437	0.314991
1200	C	0.708601	0.91071	0.989146
1201	C	0.691104	0.929233	0.989575
1202	C	0.710363	0.964813	0.993209
1203	N	0.691135	0.876622	0.997708
1204	H	0.697483	0.976969	0.001539
1205	N	0.722626	0.532451	0.293337
1206	N	0.791515	0.978008	0.284297
1207	H	0.71533	0.013709	0.272505
1208	H	0.712911	0.546836	0.288348
1209	H	0.800643	0.964229	0.273059
1210	H	0.799854	0.499652	0.269357
1211	H	0.701579	0.862818	0.331412
1212	H	0.667928	0.865058	0.007775
1213	H	0.800106	0.627171	0.393939
1214	H	0.83373	0.624161	0.068764
1215	C	0.603712	0.733982	0.041934
1216	N	0.633803	0.734464	0.038996
1217	C	0.656858	0.751157	0.005884
1218	N	0.649962	0.770052	0.310514
1219	C	0.620874	0.77105	0.311746
1220	C	0.596636	0.753971	0.345868
1221	H	0.588762	0.72289	0.069338
1222	H	0.618632	0.787354	0.290394
1223	C	0.769016	0.87621	0.040794
1224	N	0.767455	0.904136	0.028993
1225	C	0.762246	0.910766	0.986117
1226	N	0.756337	0.886786	0.288076
1227	C	0.757593	0.858324	0.297378
1228	C	0.761411	0.850496	0.342228
1229	H	0.770492	0.871855	0.074131
1230	H	0.749973	0.840352	0.272787
1231	C	0.636443	0.905523	0.027991
1232	N	0.607164	0.875563	0.03329
1233	C	0.59262	0.852106	4.9e-05
1234	N	0.609295	0.859416	0.293564
1235	C	0.638559	0.888707	0.285929
1236	C	0.655182	0.912166	0.321119
1237	H	0.647441	0.919671	0.056062
1238	H	0.651108	0.890542	0.256707
1239	C	0.909136	0.774614	0.016361
1240	N	0.880595	0.776667	0.021492
1241	C	0.855674	0.765676	0.989995
1242	N	0.859606	0.750935	0.285981
1243	C	0.887146	0.74776	0.278728
1244	C	0.911697	0.756493	0.312868
1245	H	0.924671	0.780077	0.043541
1246	H	0.886645	0.733638	0.251801
1247	C	0.736037	0.634216	0.027309
1248	N	0.736065	0.604296	0.025448
1249	C	0.756483	0.598965	0.997208
1250	N	0.778935	0.625748	0.305648
1251	C	0.78083	0.656179	0.306571
1252	C	0.760715	0.66262	0.336679
1253	H	0.721791	0.637138	0.051404
1254	H	0.799548	0.67521	0.288121
1255	C	0.877569	0.608484	0.041106
1256	N	0.905637	0.637954	0.029354
1257	C	0.913165	0.649294	0.986301
1258	N	0.889771	0.630346	0.287974
1259	C	0.861257	0.60055	0.297206
1260	C	0.852394	0.589509	0.342188
1261	H	0.872704	0.603173	0.074492
1262	H	0.843821	0.589749	0.272062
1263	C	0.984857	0.740136	0.651316
1264	C	0.964565	0.755555	0.323289
1265	C	0.929257	0.738236	0.316957
1266	C	0.91172	0.702206	0.317677
1267	C	0.930576	0.684995	0.64765
1268	C	0.96662	0.704213	0.642879
1269	H	0.975639	0.780716	0.330636
1270	N	0.877442	0.684997	0.324953
1271	C	0.520976	0.760659	0.658707
1272	C	0.540268	0.796762	0.651877
1273	C	0.571232	0.817143	0.675978
1274	C	0.586654	0.800306	0.364333
1275	C	0.573558	0.765221	0.356788
1276	C	0.539995	0.745932	0.341668
1277	N	0.614865	0.816013	0.390819
1278	H	0.529321	0.720415	0.345069
1279	N	0.982461	0.68841	0.624484
1280	N	0.529683	0.811534	0.620871
1281	H	0.504384	0.701721	0.61029
1282	H	0.969817	0.664922	0.615
1283	H	0.541607	0.835719	0.615396
1284	H	0.623772	0.838833	0.734718
1285	H	0.62272	0.802942	0.407449
1286	H	0.864288	0.660802	0.660972
1287	H	0.865353	0.696425	0.3335
1288	C	0.764564	0.745852	0.66065
1289	C	0.750487	0.71104	0.3389
1290	C	0.771095	0.696794	0.347498
1291	C	0.805899	0.719447	0.355932
1292	C	0.82157	0.752426	0.669939
1293	C	0.800048	0.763136	0.649844
1294	H	0.72509	0.695472	0.342466
1295	N	0.822868	0.707681	0.381168
1296	C	0.745009	0.762734	0.663709
1297	C	0.708752	0.746749	0.661623
1298	C	0.691708	0.763164	0.680279
1299	C	0.711102	0.797118	0.363152
1300	C	0.746384	0.815854	0.354339
1301	C	0.762283	0.798086	0.339396
1302	N	0.696031	0.81186	0.386488
1303	H	0.788058	0.811784	0.339594
1304	N	0.812767	0.78882	0.619221
1305	N	0.690743	0.717531	0.637773
1306	H	0.797788	0.793395	0.601108
1307	H	0.836464	0.800847	0.610699
1308	H	0.666362	0.706569	0.634432
1309	H	0.702061	0.709834	0.617325
1310	H	0.672978	0.798637	0.73035
1311	H	0.709217	0.833297	0.401538
1312	H	0.84521	0.722738	0.726072
1313	H	0.810597	0.686104	0.39664
1314	C	0.764269	0.520035	0.658462
1315	C	0.799016	0.53673	0.337917
1316	C	0.81739	0.570369	0.353326
1317	C	0.799184	0.587699	0.360123
1318	C	0.766427	0.574782	0.673797
1319	C	0.749965	0.54175	0.653923
1320	H	0.811544	0.523561	0.340497
1321	N	0.813225	0.61677	0.385022
1322	C	0.745927	0.983738	0.651722
1323	C	0.76168	0.964098	0.640755
1324	C	0.744272	0.928437	0.648324
1325	C	0.708601	0.91071	0.322478
1326	C	0.691104	0.929233	0.322909
1327	C	0.710363	0.964813	0.326541
1328	N	0.691135	0.876622	0.331039
1329	H	0.697483	0.976969	0.334871
1330	N	0.722626	0.532451	0.626672
1331	N	0.791515	0.978008	0.61763
1332	H	0.71533	0.013709	0.605838
1333	H	0.712911	0.546836	0.621683
1334	H	0.800643	0.964229	0.606392
1335	H	0.799854	0.499652	0.602691
1336	H	0.701579	0.862818	0.664746
1337	H	0.667928	0.865058	0.341107
1338	H	0.800106	0.627171	0.72727
1339	H	0.83373	0.624161	0.402098
1340	C	0.603712	0.733982	0.375266
1341	N	0.633803	0.734464	0.372331
1342	C	0.656858	0.751157	0.339219
1343	N	0.649962	0.770052	0.643849
1344	C	0.620874	0.77105	0.64508
1345	C	0.596636	0.753971	0.679202
1346	H	0.588762	0.72289	0.402672
1347	H	0.618632	0.787354	0.62373
1348	C	0.769016	0.87621	0.374126
1349	N	0.767455	0.904136	0.362327
1350	C	0.762246	0.910766	0.31945
1351	N	0.756337	0.886786	0.621411
1352	C	0.757593	0.858324	0.630711
1353	C	0.761411	0.850496	0.675562
1354	H	0.770492	0.871855	0.407466
1355	H	0.749973	0.840352	0.60612
1356	C	0.636443	0.905523	0.361324
1357	N	0.607164	0.875563	0.366624
1358	C	0.59262	0.852106	0.333381
1359	N	0.609295	0.859416	0.626897
1360	C	0.638559	0.888707	0.619264
1361	C	0.655182	0.912166	0.654453
1362	H	0.647441	0.919671	0.389397
1363	H	0.651108	0.890542	0.59004
1364	C	0.909136	0.774614	0.349696
1365	N	0.880595	0.776667	0.354825
1366	C	0.855674	0.765676	0.323326
1367	N	0.859606	0.750935	0.619315
1368	C	0.887146	0.74776	0.612061
1369	C	0.911697	0.756493	0.6462
1370	H	0.924671	0.780077	0.376873
1371	H	0.886645	0.733638	0.585135
1372	C	0.736037	0.634216	0.360643
1373	N	0.736065	0.604296	0.358781
1374	C	0.756483	0.598965	0.330542
1375	N	0.778935	0.625748	0.638981
1376	C	0.78083	0.656179	0.639903
1377	C	0.760715	0.66262	0.670013
1378	H	0.721791	0.637138	0.384737
1379	H	0.799548	0.67521	0.621455
1380	C	0.877569	0.608484	0.374441
1381	N	0.905637	0.637954	0.362689
1382	C	0.913165	0.649294	0.319633
1383	N	0.889771	0.630346	0.621307
1384	C	0.861257	0.60055	0.63054
1385	C	0.852394	0.589509	0.675522
1386	H	0.872704	0.603173	0.407825
1387	H	0.843821	0.589749	0.605395
1388	C	0.984857	0.740136	0.984651
1389	C	0.964565	0.755555	0.656624
1390	C	0.929257	0.738236	0.65029
1391	C	0.91172	0.702206	0.651011
1392	C	0.930576	0.684995	0.980984
1393	C	0.96662	0.704213	0.976213
1394	H	0.975639	0.780716	0.663971
1395	N	0.877442	0.684997	0.658288
1396	C	0.520976	0.760659	0.992041
1397	C	0.540268	0.796762	0.985211
1398	C	0.571232	0.817143	0.009312
1399	C	0.586654	0.800306	0.697667
1400	C	0.573558	0.765221	0.690119
1401	C	0.539995	0.745932	0.675002
1402	N	0.614865	0.816013	0.724154
1403	H	0.529321	0.720415	0.678403
1404	N	0.982461	0.68841	0.957819
1405	N	0.529683	0.811534	0.954205
1406	H	0.504384	0.701721	0.943624
1407	H	0.969817	0.664922	0.948334
1408	H	0.541607	0.835719	0.94873
1409	H	0.623772	0.838833	0.068052
1410	H	0.62272	0.802942	0.740783
1411	H	0.864288	0.660802	0.994306
1412	H	0.865353	0.696425	0.666833
1413	C	0.764564	0.745852	0.99398
1414	C	0.750487	0.71104	0.672234
1415	C	0.771095	0.696794	0.680832
1416	C	0.805899	0.719447	0.689266
1417	C	0.82157	0.752426	0.003273
1418	C	0.800048	0.763136	0.983178
1419	H	0.72509	0.695472	0.6758
1420	N	0.822868	0.707681	0.714502
1421	C	0.745009	0.762734	0.997043
1422	C	0.708752	0.746749	0.994957
1423	C	0.691708	0.763164	0.013611
1424	C	0.711102	0.797118	0.696486
1425	C	0.746384	0.815854	0.687673
1426	C	0.762283	0.798086	0.67273
1427	N	0.696031	0.81186	0.719822
1428	H	0.788058	0.811784	0.672928
1429	N	0.812767	0.78882	0.952555
1430	N	0.690743	0.717531	0.971107
1431	H	0.797788	0.793395	0.934442
1432	H	0.836464	0.800847	0.94403
1433	H	0.666362	0.706569	0.967766
1434	H	0.702061	0.709834	0.950659
1435	H	0.672978	0.798637	0.063684
1436	H	0.709217	0.833297	0.734872
1437	H	0.84521	0.722738	0.059405
1438	H	0.810597	0.686104	0.729974
1439	C	0.764269	0.520035	0.991796
1440	C	0.799016	0.53673	0.671251
1441	C	0.81739	0.570369	0.68666
1442	C	0.799184	0.587699	0.693457
1443	C	0.766427	0.574782	0.00713
1444	C	0.749965	0.54175	0.987257
1445	H	0.811544	0.523561	0.673831
1446	N	0.813225	0.61677	0.718356
1447	C	0.745927	0.983738	0.985057
1448	C	0.76168	0.964098	0.974086
1449	C	0.744272	0.928437	0.981658
1450	C	0.708601	0.91071	0.655812
1451	C	0.691104	0.929233	0.656241
1452	C	0.710363	0.964813	0.659875
1453	N	0.691135	0.876622	0.664374
1454	H	0.697483	0.976969	0.668205
1455	N	0.722626	0.532451	0.960006
1456	N	0.791515	0.978008	0.950965
1457	H	0.71533	0.013709	0.939172
1458	H	0.712911	0.546836	0.955014
1459	H	0.800643	0.964229	0.939726
1460	H	0.799854	0.499652	0.936025
1461	H	0.701579	0.862818	0.99808
1462	H	0.667928	0.865058	0.674441
1463	H	0.800106	0.627171	0.060604
1464	H	0.83373	0.624161	0.735433
1465	C	0.603712	0.733982	0.7086
1466	N	0.633803	0.734464	0.705665
1467	C	0.656858	0.751157	0.672549
1468	N	0.649962	0.770052	0.977183
1469	C	0.620874	0.77105	0.978414
1470	C	0.596636	0.753971	0.012535
1471	H	0.588762	0.72289	0.736006
1472	H	0.618632	0.787354	0.95706
1473	C	0.769016	0.87621	0.70746
1474	N	0.767455	0.904136	0.695661
1475	C	0.762246	0.910766	0.652783
1476	N	0.756337	0.886786	0.954742
1477	C	0.757593	0.858324	0.964045
1478	C	0.761411	0.850496	0.008894
1479	H	0.770492	0.871855	0.7408
1480	H	0.749973	0.840352	0.939454
1481	C	0.636443	0.905523	0.694658
1482	N	0.607164	0.875563	0.699958
1483	C	0.59262	0.852106	0.666715
1484	N	0.609295	0.859416	0.960231
1485	C	0.638559	0.888707	0.952595
1486	C	0.655182	0.912166	0.987787
1487	H	0.647441	0.919671	0.722731
1488	H	0.651108	0.890542	0.923374
1489	C	0.909136	0.774614	0.68303
1490	N	0.880595	0.776667	0.688159
1491	C	0.855674	0.765676	0.656661
1492	N	0.859606	0.750935	0.952649
1493	C	0.887146	0.74776	0.945396
1494	C	0.911697	0.756493	0.979534
1495	H	0.924671	0.780077	0.710207
1496	H	0.886645	0.733638	0.91847
1497	C	0.736037	0.634216	0.693977
1498	N	0.736065	0.604296	0.692115
1499	C	0.756483	0.598965	0.663877
1500	N	0.778935	0.625748	0.972315
1501	C	0.78083	0.656179	0.973237
1502	C	0.760715	0.66262	0.003347
1503	H	0.721791	0.637138	0.718071
1504	H	0.799548	0.67521	0.954789
1505	C	0.877569	0.608484	0.707772
1506	N	0.905637	0.637954	0.69602
1507	C	0.913165	0.649294	0.652967
1508	N	0.889771	0.630346	0.954641
1509	C	0.861257	0.60055	0.963874
1510	C	0.852394	0.589509	0.008854
1511	H	0.872704	0.603173	0.741159
1512	H	0.843821	0.589749	0.938729
