data_C432H216N144O216_2018-02-15_10:32:47
#******************************************
#
# CIF file created by Zeo++
# Zeo++ is an open source package to
# analyze microporous materials
#
#*******************************************

_cell_length_a		44.0749   
_cell_length_b		44.0749   
_cell_length_c		30.0748   
_cell_angle_alpha		90   
_cell_angle_beta		90   
_cell_angle_gamma		120   

_symmetry_space_group_name_H-M		'P1'
_symmetry_Int_Tables_number		1
_symmetry_cell_setting		Monoclinic

loop_
_symmetry_equiv_pos_as_xyz
'+x,+y,+z'

loop_
_atom_site_label
_atom_site_type_symbol
_atom_site_fract_x
_atom_site_fract_y
_atom_site_fract_z
1	C	0.172379	0.367757	0.960697
2	C	0.137466	0.339466	0.960574
3	C	0.12911	0.303977	0.960631
4	C	0.157407	0.297362	0.960561
5	C	0.192896	0.324496	0.294002
6	C	0.199519	0.35941	0.960551
7	H	0.151879	0.272012	0.963247
8	H	0.224864	0.379224	0.963344
9	H	0.117644	0.344993	0.963264
10	C	0.179652	0.402811	0.966024
11	C	0.220676	0.317223	0.299353
12	C	0.094055	0.276191	0.965927
13	O	0.253226	0.344189	0.975251
14	O	0.15269	0.408391	0.975304
15	O	0.088469	0.243635	0.975131
16	C	0.318233	0.128303	0.039566
17	C	0.354675	0.15258	0.039779
18	C	0.368603	0.189325	0.0396
19	C	0.344317	0.201481	0.039809
20	C	0.307571	0.17867	0.372993
21	C	0.295413	0.142226	0.039816
22	H	0.35382	0.227766	0.037083
23	H	0.269127	0.12545	0.037092
24	H	0.371455	0.143081	0.03697
25	C	0.305752	0.091893	0.033927
26	C	0.283635	0.191144	0.367394
27	C	0.405007	0.213257	0.033919
28	O	0.248898	0.167423	0.031072
29	O	0.329473	0.080875	0.030994
30	O	0.41602	0.247997	0.030984
31	C	0.237414	0.272311	0.310078
32	C	0.235725	0.242246	0.291017
33	C	0.25434	0.226562	0.308671
34	C	0.274071	0.239855	0.015332
35	C	0.276527	0.270571	0.034489
36	H	0.221803	0.232294	0.262252
37	C	0.258309	0.28612	0.015208
38	H	0.258672	0.306555	0.03166
39	N	0.256307	0.200354	0.283528
40	N	0.295346	0.284234	0.074692
41	O	0.226581	0.174396	0.275678
42	O	0.275716	0.282767	0.105958
43	O	0.271912	0.212144	0.247184
44	O	0.319611	0.315397	0.070228
45	N	0.217273	0.285038	0.292706
46	H	0.198757	0.269628	0.272296
47	N	0.292606	0.225603	0.033827
48	H	0.312896	0.241068	0.051685
49	C	0.224558	0.464472	0.310047
50	C	0.254616	0.492837	0.290971
51	C	0.270322	0.027146	0.308607
52	C	0.257044	0.033593	0.015277
53	C	0.226319	0.005343	0.034438
54	H	0.264586	0.488855	0.26223
55	C	0.210737	0.471577	0.01515
56	H	0.190345	0.451512	0.031665
57	N	0.296542	0.055304	0.28346
58	N	0.212683	0.010513	0.074656
59	O	0.322488	0.051514	0.275626
60	O	0.21415	0.992342	0.105913
61	O	0.284764	0.05912	0.247107
62	O	0.181525	0.003637	0.070219
63	N	0.211841	0.431593	0.292715
64	H	0.227251	0.42848	0.272315
65	N	0.271299	0.066387	0.033754
66	H	0.25583	0.071218	0.05159
67	C	0.032405	0.259449	0.309964
68	C	0.004046	0.261183	0.290932
69	C	0.469741	0.242567	0.308571
70	C	0.463299	0.222842	0.015239
71	C	0.49155	0.220353	0.034373
72	H	0.008016	0.275098	0.26216
73	C	0.025308	0.238521	0.015061
74	H	0.045374	0.238176	0.031551
75	N	0.441577	0.240628	0.283436
76	N	0.486385	0.201547	0.074589
77	O	0.445361	0.270364	0.275608
78	O	0.504576	0.22118	0.105837
79	O	0.437755	0.225036	0.24708
80	O	0.493242	0.177251	0.070136
81	N	0.065279	0.279602	0.292612
82	H	0.068397	0.298137	0.27223
83	N	0.430511	0.204311	0.033732
84	H	0.425683	0.18401	0.051568
85	C	0.172379	0.367757	0.29403
86	C	0.137466	0.339466	0.293905
87	C	0.12911	0.303977	0.293964
88	C	0.157407	0.297362	0.293893
89	C	0.192896	0.324496	0.627335
90	C	0.199519	0.35941	0.293885
91	H	0.151879	0.272012	0.296581
92	H	0.224864	0.379224	0.296678
93	H	0.117644	0.344993	0.296595
94	C	0.179652	0.402811	0.299356
95	C	0.220676	0.317223	0.632685
96	C	0.094055	0.276191	0.29926
97	O	0.253226	0.344189	0.308583
98	O	0.15269	0.408391	0.308636
99	O	0.088469	0.243635	0.308462
100	C	0.318233	0.128303	0.3729
101	C	0.354675	0.15258	0.373113
102	C	0.368603	0.189325	0.372933
103	C	0.344317	0.201481	0.373143
104	C	0.307571	0.17867	0.706328
105	C	0.295413	0.142226	0.373149
106	H	0.35382	0.227766	0.370416
107	H	0.269127	0.12545	0.370426
108	H	0.371455	0.143081	0.370303
109	C	0.305752	0.091893	0.367261
110	C	0.283635	0.191144	0.700725
111	C	0.405007	0.213257	0.367254
112	O	0.248898	0.167423	0.364404
113	O	0.329473	0.080875	0.364328
114	O	0.41602	0.247997	0.364318
115	C	0.237414	0.272311	0.643412
116	C	0.235725	0.242246	0.624349
117	C	0.25434	0.226562	0.642005
118	C	0.274071	0.239855	0.348667
119	C	0.276527	0.270571	0.367823
120	H	0.221803	0.232294	0.595584
121	C	0.258309	0.28612	0.348541
122	H	0.258672	0.306555	0.364993
123	N	0.256307	0.200354	0.616861
124	N	0.295346	0.284234	0.408026
125	O	0.226581	0.174396	0.609011
126	O	0.275716	0.282767	0.439291
127	O	0.271912	0.212144	0.580519
128	O	0.319611	0.315397	0.403563
129	N	0.217273	0.285038	0.626038
130	H	0.198757	0.269628	0.605629
131	N	0.292606	0.225603	0.367161
132	H	0.312896	0.241068	0.38502
133	C	0.224558	0.464472	0.643382
134	C	0.254616	0.492837	0.624306
135	C	0.270322	0.027146	0.641942
136	C	0.257044	0.033593	0.34861
137	C	0.226319	0.005343	0.367773
138	H	0.264586	0.488855	0.595564
139	C	0.210737	0.471577	0.348484
140	H	0.190345	0.451512	0.365
141	N	0.296542	0.055304	0.616795
142	N	0.212683	0.010513	0.407989
143	O	0.322488	0.051514	0.608961
144	O	0.21415	0.992342	0.439248
145	O	0.284764	0.05912	0.580442
146	O	0.181525	0.003637	0.403553
147	N	0.211841	0.431593	0.626048
148	H	0.227251	0.42848	0.605649
149	N	0.271299	0.066387	0.367088
150	H	0.25583	0.071218	0.384923
151	C	0.032405	0.259449	0.643299
152	C	0.004046	0.261183	0.624266
153	C	0.469741	0.242567	0.641906
154	C	0.463299	0.222842	0.348574
155	C	0.49155	0.220353	0.367706
156	H	0.008016	0.275098	0.595495
157	C	0.025308	0.238521	0.348394
158	H	0.045374	0.238176	0.364887
159	N	0.441577	0.240628	0.616768
160	N	0.486385	0.201547	0.407923
161	O	0.445361	0.270364	0.608941
162	O	0.504576	0.22118	0.439171
163	O	0.437755	0.225036	0.580412
164	O	0.493242	0.177251	0.40347
165	N	0.065279	0.279602	0.625945
166	H	0.068397	0.298137	0.605563
167	N	0.430511	0.204311	0.367064
168	H	0.425683	0.18401	0.384903
169	C	0.172379	0.367757	0.627365
170	C	0.137466	0.339466	0.627239
171	C	0.12911	0.303977	0.627299
172	C	0.157407	0.297362	0.627225
173	C	0.192896	0.324496	0.96067
174	C	0.199519	0.35941	0.627219
175	H	0.151879	0.272012	0.629915
176	H	0.224864	0.379224	0.630012
177	H	0.117644	0.344993	0.629929
178	C	0.179652	0.402811	0.632689
179	C	0.220676	0.317223	0.96602
180	C	0.094055	0.276191	0.632592
181	O	0.253226	0.344189	0.641916
182	O	0.15269	0.408391	0.641969
183	O	0.088469	0.243635	0.641796
184	C	0.318233	0.128303	0.706235
185	C	0.354675	0.15258	0.706448
186	C	0.368603	0.189325	0.706268
187	C	0.344317	0.201481	0.706478
188	C	0.307571	0.17867	0.03966
189	C	0.295413	0.142226	0.706484
190	H	0.35382	0.227766	0.703751
191	H	0.269127	0.12545	0.703761
192	H	0.371455	0.143081	0.703638
193	C	0.305752	0.091893	0.700592
194	C	0.283635	0.191144	0.034059
195	C	0.405007	0.213257	0.700586
196	O	0.248898	0.167423	0.69774
197	O	0.329473	0.080875	0.697663
198	O	0.41602	0.247997	0.69765
199	C	0.237414	0.272311	0.976747
200	C	0.235725	0.242246	0.957685
201	C	0.25434	0.226562	0.975337
202	C	0.274071	0.239855	0.681999
203	C	0.276527	0.270571	0.701158
204	H	0.221803	0.232294	0.92892
205	C	0.258309	0.28612	0.681876
206	H	0.258672	0.306555	0.698328
207	N	0.256307	0.200354	0.950197
208	N	0.295346	0.284234	0.741361
209	O	0.226581	0.174396	0.942346
210	O	0.275716	0.282767	0.772626
211	O	0.271912	0.212144	0.913851
212	O	0.319611	0.315397	0.736895
213	N	0.217273	0.285038	0.959374
214	H	0.198757	0.269628	0.938965
215	N	0.292606	0.225603	0.700493
216	H	0.312896	0.241068	0.718352
217	C	0.224558	0.464472	0.976714
218	C	0.254616	0.492837	0.957638
219	C	0.270322	0.027146	0.975274
220	C	0.257044	0.033593	0.681946
221	C	0.226319	0.005343	0.701105
222	H	0.264586	0.488855	0.928896
223	C	0.210737	0.471577	0.681816
224	H	0.190345	0.451512	0.698331
225	N	0.296542	0.055304	0.950127
226	N	0.212683	0.010513	0.741324
227	O	0.322488	0.051514	0.942293
228	O	0.21415	0.992342	0.77258
229	O	0.284764	0.05912	0.913774
230	O	0.181525	0.003637	0.736885
231	N	0.211841	0.431593	0.959384
232	H	0.227251	0.42848	0.938981
233	N	0.271299	0.066387	0.700423
234	H	0.25583	0.071218	0.718258
235	C	0.032405	0.259449	0.976631
236	C	0.004046	0.261183	0.957598
237	C	0.469741	0.242567	0.975237
238	C	0.463299	0.222842	0.681906
239	C	0.49155	0.220353	0.701041
240	H	0.008016	0.275098	0.928827
241	C	0.025308	0.238521	0.68173
242	H	0.045374	0.238176	0.698218
243	N	0.441577	0.240628	0.950103
244	N	0.486385	0.201547	0.741258
245	O	0.445361	0.270364	0.942276
246	O	0.504576	0.22118	0.772503
247	O	0.437755	0.225036	0.913747
248	O	0.493242	0.177251	0.736805
249	N	0.065279	0.279602	0.959281
250	H	0.068397	0.298137	0.938898
251	N	0.430511	0.204311	0.7004
252	H	0.425683	0.18401	0.718235
253	C	0.172379	0.867757	0.960697
254	C	0.137466	0.839465	0.960574
255	C	0.129111	0.803977	0.960631
256	C	0.157406	0.797362	0.960561
257	C	0.192895	0.824493	0.294002
258	C	0.199521	0.85941	0.960551
259	H	0.151878	0.772012	0.963247
260	H	0.224864	0.879224	0.963344
261	H	0.117644	0.844993	0.963264
262	C	0.179653	0.902811	0.966024
263	C	0.220676	0.817223	0.299353
264	C	0.094056	0.776191	0.965927
265	O	0.253227	0.844189	0.975251
266	O	0.152689	0.908391	0.975304
267	O	0.088469	0.743636	0.975131
268	C	0.318233	0.628302	0.039566
269	C	0.354676	0.65258	0.039779
270	C	0.368604	0.689324	0.0396
271	C	0.344317	0.70148	0.039809
272	C	0.307571	0.678669	0.372993
273	C	0.295413	0.642224	0.039816
274	H	0.35382	0.727765	0.037083
275	H	0.269127	0.625449	0.037092
276	H	0.371456	0.643081	0.03697
277	C	0.305752	0.591894	0.033927
278	C	0.283636	0.691145	0.367394
279	C	0.405006	0.713256	0.033919
280	O	0.248898	0.667422	0.031072
281	O	0.329474	0.580875	0.030994
282	O	0.416021	0.747996	0.030984
283	C	0.237414	0.772311	0.310078
284	C	0.235725	0.742245	0.291017
285	C	0.254341	0.726563	0.308671
286	C	0.274072	0.739856	0.015332
287	C	0.276527	0.770571	0.034489
288	H	0.221804	0.732295	0.262252
289	C	0.258309	0.78612	0.015208
290	H	0.258673	0.806555	0.03166
291	N	0.256307	0.700354	0.283528
292	N	0.295347	0.784234	0.074692
293	O	0.226582	0.674396	0.275678
294	O	0.275716	0.782766	0.105958
295	O	0.271912	0.712143	0.247184
296	O	0.319612	0.815397	0.070228
297	N	0.217273	0.785038	0.292706
298	H	0.198757	0.769628	0.272296
299	N	0.292607	0.725604	0.033827
300	H	0.312897	0.741069	0.051685
301	C	0.224558	0.964472	0.310047
302	C	0.254615	0.992837	0.290971
303	C	0.270322	0.527147	0.308607
304	C	0.257044	0.533592	0.015277
305	C	0.22632	0.505344	0.034438
306	H	0.264584	0.988852	0.26223
307	C	0.210737	0.971577	0.01515
308	H	0.190345	0.951512	0.031665
309	N	0.296542	0.555303	0.28346
310	N	0.212684	0.510513	0.074656
311	O	0.32249	0.551514	0.275626
312	O	0.214151	0.492342	0.105913
313	O	0.284764	0.55912	0.247107
314	O	0.181525	0.503636	0.070219
315	N	0.211841	0.931593	0.292715
316	H	0.22725	0.928478	0.272315
317	N	0.271301	0.566387	0.033754
318	H	0.25583	0.571218	0.05159
319	C	0.032406	0.75945	0.309964
320	C	0.004048	0.761184	0.290932
321	C	0.46974	0.742567	0.308571
322	C	0.463301	0.722842	0.015239
323	C	0.491551	0.720354	0.034373
324	H	0.008016	0.775098	0.26216
325	C	0.025308	0.73852	0.015061
326	H	0.045374	0.738176	0.031551
327	N	0.441576	0.740629	0.283436
328	N	0.486386	0.701546	0.074589
329	O	0.445362	0.770364	0.275608
330	O	0.504577	0.721179	0.105837
331	O	0.437757	0.725035	0.24708
332	O	0.493243	0.677252	0.070136
333	N	0.065279	0.779602	0.292612
334	H	0.068398	0.798137	0.27223
335	N	0.430513	0.704312	0.033732
336	H	0.425683	0.684011	0.051568
337	C	0.172379	0.867757	0.29403
338	C	0.137466	0.839465	0.293905
339	C	0.129111	0.803977	0.293964
340	C	0.157406	0.797362	0.293893
341	C	0.192895	0.824493	0.627335
342	C	0.199521	0.85941	0.293885
343	H	0.151878	0.772012	0.296581
344	H	0.224864	0.879224	0.296678
345	H	0.117644	0.844993	0.296595
346	C	0.179653	0.902811	0.299356
347	C	0.220676	0.817223	0.632685
348	C	0.094056	0.776191	0.29926
349	O	0.253227	0.844189	0.308583
350	O	0.152689	0.908391	0.308636
351	O	0.088469	0.743636	0.308462
352	C	0.318233	0.628302	0.3729
353	C	0.354676	0.65258	0.373113
354	C	0.368604	0.689324	0.372933
355	C	0.344317	0.70148	0.373143
356	C	0.307571	0.678669	0.706328
357	C	0.295413	0.642224	0.373149
358	H	0.35382	0.727765	0.370416
359	H	0.269127	0.625449	0.370426
360	H	0.371456	0.643081	0.370303
361	C	0.305752	0.591894	0.367261
362	C	0.283636	0.691145	0.700725
363	C	0.405006	0.713256	0.367254
364	O	0.248898	0.667422	0.364404
365	O	0.329474	0.580875	0.364328
366	O	0.416021	0.747996	0.364318
367	C	0.237414	0.772311	0.643412
368	C	0.235725	0.742245	0.624349
369	C	0.254341	0.726563	0.642005
370	C	0.274072	0.739856	0.348667
371	C	0.276527	0.770571	0.367823
372	H	0.221804	0.732295	0.595584
373	C	0.258309	0.78612	0.348541
374	H	0.258673	0.806555	0.364993
375	N	0.256307	0.700354	0.616861
376	N	0.295347	0.784234	0.408026
377	O	0.226582	0.674396	0.609011
378	O	0.275716	0.782766	0.439291
379	O	0.271912	0.712143	0.580519
380	O	0.319612	0.815397	0.403563
381	N	0.217273	0.785038	0.626038
382	H	0.198757	0.769628	0.605629
383	N	0.292607	0.725604	0.367161
384	H	0.312897	0.741069	0.38502
385	C	0.224558	0.964472	0.643382
386	C	0.254615	0.992837	0.624306
387	C	0.270322	0.527147	0.641942
388	C	0.257044	0.533592	0.34861
389	C	0.22632	0.505344	0.367773
390	H	0.264584	0.988852	0.595564
391	C	0.210737	0.971577	0.348484
392	H	0.190345	0.951512	0.365
393	N	0.296542	0.555303	0.616795
394	N	0.212684	0.510513	0.407989
395	O	0.32249	0.551514	0.608961
396	O	0.214151	0.492342	0.439248
397	O	0.284764	0.55912	0.580442
398	O	0.181525	0.503636	0.403553
399	N	0.211841	0.931593	0.626048
400	H	0.22725	0.928478	0.605649
401	N	0.271301	0.566387	0.367088
402	H	0.25583	0.571218	0.384923
403	C	0.032406	0.75945	0.643299
404	C	0.004048	0.761184	0.624266
405	C	0.46974	0.742567	0.641906
406	C	0.463301	0.722842	0.348574
407	C	0.491551	0.720354	0.367706
408	H	0.008016	0.775098	0.595495
409	C	0.025308	0.73852	0.348394
410	H	0.045374	0.738176	0.364887
411	N	0.441576	0.740629	0.616768
412	N	0.486386	0.701546	0.407923
413	O	0.445362	0.770364	0.608941
414	O	0.504577	0.721179	0.439171
415	O	0.437757	0.725035	0.580412
416	O	0.493243	0.677252	0.40347
417	N	0.065279	0.779602	0.625945
418	H	0.068398	0.798137	0.605563
419	N	0.430513	0.704312	0.367064
420	H	0.425683	0.684011	0.384903
421	C	0.172379	0.867757	0.627365
422	C	0.137466	0.839465	0.627239
423	C	0.129111	0.803977	0.627299
424	C	0.157406	0.797362	0.627225
425	C	0.192895	0.824493	0.96067
426	C	0.199521	0.85941	0.627219
427	H	0.151878	0.772012	0.629915
428	H	0.224864	0.879224	0.630012
429	H	0.117644	0.844993	0.629929
430	C	0.179653	0.902811	0.632689
431	C	0.220676	0.817223	0.96602
432	C	0.094056	0.776191	0.632592
433	O	0.253227	0.844189	0.641916
434	O	0.152689	0.908391	0.641969
435	O	0.088469	0.743636	0.641796
436	C	0.318233	0.628302	0.706235
437	C	0.354676	0.65258	0.706448
438	C	0.368604	0.689324	0.706268
439	C	0.344317	0.70148	0.706478
440	C	0.307571	0.678669	0.03966
441	C	0.295413	0.642224	0.706484
442	H	0.35382	0.727765	0.703751
443	H	0.269127	0.625449	0.703761
444	H	0.371456	0.643081	0.703638
445	C	0.305752	0.591894	0.700592
446	C	0.283636	0.691145	0.034059
447	C	0.405006	0.713256	0.700586
448	O	0.248898	0.667422	0.69774
449	O	0.329474	0.580875	0.697663
450	O	0.416021	0.747996	0.69765
451	C	0.237414	0.772311	0.976747
452	C	0.235725	0.742245	0.957685
453	C	0.254341	0.726563	0.975337
454	C	0.274072	0.739856	0.681999
455	C	0.276527	0.770571	0.701158
456	H	0.221804	0.732295	0.92892
457	C	0.258309	0.78612	0.681876
458	H	0.258673	0.806555	0.698328
459	N	0.256307	0.700354	0.950197
460	N	0.295347	0.784234	0.741361
461	O	0.226582	0.674396	0.942346
462	O	0.275716	0.782766	0.772626
463	O	0.271912	0.712143	0.913851
464	O	0.319612	0.815397	0.736895
465	N	0.217273	0.785038	0.959374
466	H	0.198757	0.769628	0.938965
467	N	0.292607	0.725604	0.700493
468	H	0.312897	0.741069	0.718352
469	C	0.224558	0.964472	0.976714
470	C	0.254615	0.992837	0.957638
471	C	0.270322	0.527147	0.975274
472	C	0.257044	0.533592	0.681946
473	C	0.22632	0.505344	0.701105
474	H	0.264584	0.988852	0.928896
475	C	0.210737	0.971577	0.681816
476	H	0.190345	0.951512	0.698331
477	N	0.296542	0.555303	0.950127
478	N	0.212684	0.510513	0.741324
479	O	0.32249	0.551514	0.942293
480	O	0.214151	0.492342	0.77258
481	O	0.284764	0.55912	0.913774
482	O	0.181525	0.503636	0.736885
483	N	0.211841	0.931593	0.959384
484	H	0.22725	0.928478	0.938981
485	N	0.271301	0.566387	0.700423
486	H	0.25583	0.571218	0.718258
487	C	0.032406	0.75945	0.976631
488	C	0.004048	0.761184	0.957598
489	C	0.46974	0.742567	0.975237
490	C	0.463301	0.722842	0.681906
491	C	0.491551	0.720354	0.701041
492	H	0.008016	0.775098	0.928827
493	C	0.025308	0.73852	0.68173
494	H	0.045374	0.738176	0.698218
495	N	0.441576	0.740629	0.950103
496	N	0.486386	0.701546	0.741258
497	O	0.445362	0.770364	0.942276
498	O	0.504577	0.721179	0.772503
499	O	0.437757	0.725035	0.913747
500	O	0.493243	0.677252	0.736805
501	N	0.065279	0.779602	0.959281
502	H	0.068398	0.798137	0.938898
503	N	0.430513	0.704312	0.7004
504	H	0.425683	0.684011	0.718235
505	C	0.672379	0.367757	0.960697
506	C	0.637466	0.339466	0.960574
507	C	0.629111	0.303977	0.960631
508	C	0.657406	0.297362	0.960561
509	C	0.692897	0.324496	0.294002
510	C	0.699519	0.35941	0.960551
511	H	0.651878	0.272012	0.963247
512	H	0.724863	0.379224	0.963344
513	H	0.617644	0.344993	0.963264
514	C	0.679651	0.402811	0.966024
515	C	0.720675	0.317223	0.299353
516	C	0.594056	0.276191	0.965927
517	O	0.753226	0.344189	0.975251
518	O	0.65269	0.408391	0.975304
519	O	0.588469	0.243635	0.975131
520	C	0.818234	0.128303	0.039566
521	C	0.854677	0.15258	0.039779
522	C	0.868604	0.189325	0.0396
523	C	0.844318	0.201481	0.039809
524	C	0.807571	0.17867	0.372993
525	C	0.795414	0.142226	0.039816
526	H	0.853819	0.227766	0.037083
527	H	0.769127	0.12545	0.037092
528	H	0.871456	0.143081	0.03697
529	C	0.805751	0.091893	0.033927
530	C	0.783635	0.191144	0.367394
531	C	0.905006	0.213257	0.033919
532	O	0.748898	0.167423	0.031072
533	O	0.829474	0.080875	0.030994
534	O	0.916021	0.247997	0.030984
535	C	0.737414	0.272311	0.310078
536	C	0.735725	0.242246	0.291017
537	C	0.75434	0.226562	0.308671
538	C	0.774071	0.239855	0.015332
539	C	0.776526	0.270571	0.034489
540	H	0.721803	0.232294	0.262252
541	C	0.758308	0.28612	0.015208
542	H	0.758672	0.306555	0.03166
543	N	0.756306	0.200354	0.283528
544	N	0.795346	0.284234	0.074692
545	O	0.726583	0.174396	0.275678
546	O	0.775715	0.282767	0.105958
547	O	0.771911	0.212144	0.247184
548	O	0.819611	0.315397	0.070228
549	N	0.717273	0.285038	0.292706
550	H	0.698757	0.269628	0.272296
551	N	0.792606	0.225603	0.033827
552	H	0.812897	0.241068	0.051685
553	C	0.724558	0.464472	0.310047
554	C	0.754615	0.492837	0.290971
555	C	0.770321	0.027146	0.308607
556	C	0.757043	0.033593	0.015277
557	C	0.726319	0.005343	0.034438
558	H	0.764586	0.488855	0.26223
559	C	0.710737	0.471577	0.01515
560	H	0.690345	0.451512	0.031665
561	N	0.796543	0.055304	0.28346
562	N	0.712684	0.010513	0.074656
563	O	0.82249	0.051514	0.275626
564	O	0.714151	0.992342	0.105913
565	O	0.784763	0.05912	0.247107
566	O	0.681525	0.003637	0.070219
567	N	0.711841	0.431593	0.292715
568	H	0.727252	0.42848	0.272315
569	N	0.771301	0.066387	0.033754
570	H	0.755831	0.071218	0.05159
571	C	0.532405	0.259449	0.309964
572	C	0.504047	0.261183	0.290932
573	C	0.96974	0.242567	0.308571
574	C	0.963301	0.222842	0.015239
575	C	0.991549	0.220353	0.034373
576	H	0.508017	0.275098	0.26216
577	C	0.525308	0.238521	0.015061
578	H	0.545374	0.238176	0.031551
579	N	0.941575	0.240628	0.283436
580	N	0.986386	0.201547	0.074589
581	O	0.945362	0.270364	0.275608
582	O	0.004577	0.22118	0.105837
583	O	0.937757	0.225036	0.24708
584	O	0.993243	0.177251	0.070136
585	N	0.565279	0.279602	0.292612
586	H	0.568396	0.298137	0.27223
587	N	0.930512	0.204311	0.033732
588	H	0.925681	0.18401	0.051568
589	C	0.672379	0.367757	0.29403
590	C	0.637466	0.339466	0.293905
591	C	0.629111	0.303977	0.293964
592	C	0.657406	0.297362	0.293893
593	C	0.692897	0.324496	0.627335
594	C	0.699519	0.35941	0.293885
595	H	0.651878	0.272012	0.296581
596	H	0.724863	0.379224	0.296678
597	H	0.617644	0.344993	0.296595
598	C	0.679651	0.402811	0.299356
599	C	0.720675	0.317223	0.632685
600	C	0.594056	0.276191	0.29926
601	O	0.753226	0.344189	0.308583
602	O	0.65269	0.408391	0.308636
603	O	0.588469	0.243635	0.308462
604	C	0.818234	0.128303	0.3729
605	C	0.854677	0.15258	0.373113
606	C	0.868604	0.189325	0.372933
607	C	0.844318	0.201481	0.373143
608	C	0.807571	0.17867	0.706328
609	C	0.795414	0.142226	0.373149
610	H	0.853819	0.227766	0.370416
611	H	0.769127	0.12545	0.370426
612	H	0.871456	0.143081	0.370303
613	C	0.805751	0.091893	0.367261
614	C	0.783635	0.191144	0.700725
615	C	0.905006	0.213257	0.367254
616	O	0.748898	0.167423	0.364404
617	O	0.829474	0.080875	0.364328
618	O	0.916021	0.247997	0.364318
619	C	0.737414	0.272311	0.643412
620	C	0.735725	0.242246	0.624349
621	C	0.75434	0.226562	0.642005
622	C	0.774071	0.239855	0.348667
623	C	0.776526	0.270571	0.367823
624	H	0.721803	0.232294	0.595584
625	C	0.758308	0.28612	0.348541
626	H	0.758672	0.306555	0.364993
627	N	0.756306	0.200354	0.616861
628	N	0.795346	0.284234	0.408026
629	O	0.726583	0.174396	0.609011
630	O	0.775715	0.282767	0.439291
631	O	0.771911	0.212144	0.580519
632	O	0.819611	0.315397	0.403563
633	N	0.717273	0.285038	0.626038
634	H	0.698757	0.269628	0.605629
635	N	0.792606	0.225603	0.367161
636	H	0.812897	0.241068	0.38502
637	C	0.724558	0.464472	0.643382
638	C	0.754615	0.492837	0.624306
639	C	0.770321	0.027146	0.641942
640	C	0.757043	0.033593	0.34861
641	C	0.726319	0.005343	0.367773
642	H	0.764586	0.488855	0.595564
643	C	0.710737	0.471577	0.348484
644	H	0.690345	0.451512	0.365
645	N	0.796543	0.055304	0.616795
646	N	0.712684	0.010513	0.407989
647	O	0.82249	0.051514	0.608961
648	O	0.714151	0.992342	0.439248
649	O	0.784763	0.05912	0.580442
650	O	0.681525	0.003637	0.403553
651	N	0.711841	0.431593	0.626048
652	H	0.727252	0.42848	0.605649
653	N	0.771301	0.066387	0.367088
654	H	0.755831	0.071218	0.384923
655	C	0.532405	0.259449	0.643299
656	C	0.504047	0.261183	0.624266
657	C	0.96974	0.242567	0.641906
658	C	0.963301	0.222842	0.348574
659	C	0.991549	0.220353	0.367706
660	H	0.508017	0.275098	0.595495
661	C	0.525308	0.238521	0.348394
662	H	0.545374	0.238176	0.364887
663	N	0.941575	0.240628	0.616768
664	N	0.986386	0.201547	0.407923
665	O	0.945362	0.270364	0.608941
666	O	0.004577	0.22118	0.439171
667	O	0.937757	0.225036	0.580412
668	O	0.993243	0.177251	0.40347
669	N	0.565279	0.279602	0.625945
670	H	0.568396	0.298137	0.605563
671	N	0.930512	0.204311	0.367064
672	H	0.925681	0.18401	0.384903
673	C	0.672379	0.367757	0.627365
674	C	0.637466	0.339466	0.627239
675	C	0.629111	0.303977	0.627299
676	C	0.657406	0.297362	0.627225
677	C	0.692897	0.324496	0.96067
678	C	0.699519	0.35941	0.627219
679	H	0.651878	0.272012	0.629915
680	H	0.724863	0.379224	0.630012
681	H	0.617644	0.344993	0.629929
682	C	0.679651	0.402811	0.632689
683	C	0.720675	0.317223	0.96602
684	C	0.594056	0.276191	0.632592
685	O	0.753226	0.344189	0.641916
686	O	0.65269	0.408391	0.641969
687	O	0.588469	0.243635	0.641796
688	C	0.818234	0.128303	0.706235
689	C	0.854677	0.15258	0.706448
690	C	0.868604	0.189325	0.706268
691	C	0.844318	0.201481	0.706478
692	C	0.807571	0.17867	0.03966
693	C	0.795414	0.142226	0.706484
694	H	0.853819	0.227766	0.703751
695	H	0.769127	0.12545	0.703761
696	H	0.871456	0.143081	0.703638
697	C	0.805751	0.091893	0.700592
698	C	0.783635	0.191144	0.034059
699	C	0.905006	0.213257	0.700586
700	O	0.748898	0.167423	0.69774
701	O	0.829474	0.080875	0.697663
702	O	0.916021	0.247997	0.69765
703	C	0.737414	0.272311	0.976747
704	C	0.735725	0.242246	0.957685
705	C	0.75434	0.226562	0.975337
706	C	0.774071	0.239855	0.681999
707	C	0.776526	0.270571	0.701158
708	H	0.721803	0.232294	0.92892
709	C	0.758308	0.28612	0.681876
710	H	0.758672	0.306555	0.698328
711	N	0.756306	0.200354	0.950197
712	N	0.795346	0.284234	0.741361
713	O	0.726583	0.174396	0.942346
714	O	0.775715	0.282767	0.772626
715	O	0.771911	0.212144	0.913851
716	O	0.819611	0.315397	0.736895
717	N	0.717273	0.285038	0.959374
718	H	0.698757	0.269628	0.938965
719	N	0.792606	0.225603	0.700493
720	H	0.812897	0.241068	0.718352
721	C	0.724558	0.464472	0.976714
722	C	0.754615	0.492837	0.957638
723	C	0.770321	0.027146	0.975274
724	C	0.757043	0.033593	0.681946
725	C	0.726319	0.005343	0.701105
726	H	0.764586	0.488855	0.928896
727	C	0.710737	0.471577	0.681816
728	H	0.690345	0.451512	0.698331
729	N	0.796543	0.055304	0.950127
730	N	0.712684	0.010513	0.741324
731	O	0.82249	0.051514	0.942293
732	O	0.714151	0.992342	0.77258
733	O	0.784763	0.05912	0.913774
734	O	0.681525	0.003637	0.736885
735	N	0.711841	0.431593	0.959384
736	H	0.727252	0.42848	0.938981
737	N	0.771301	0.066387	0.700423
738	H	0.755831	0.071218	0.718258
739	C	0.532405	0.259449	0.976631
740	C	0.504047	0.261183	0.957598
741	C	0.96974	0.242567	0.975237
742	C	0.963301	0.222842	0.681906
743	C	0.991549	0.220353	0.701041
744	H	0.508017	0.275098	0.928827
745	C	0.525308	0.238521	0.68173
746	H	0.545374	0.238176	0.698218
747	N	0.941575	0.240628	0.950103
748	N	0.986386	0.201547	0.741258
749	O	0.945362	0.270364	0.942276
750	O	0.004577	0.22118	0.772503
751	O	0.937757	0.225036	0.913747
752	O	0.993243	0.177251	0.736805
753	N	0.565279	0.279602	0.959281
754	H	0.568396	0.298137	0.938898
755	N	0.930512	0.204311	0.7004
756	H	0.925681	0.18401	0.718235
757	C	0.67238	0.867757	0.960697
758	C	0.637467	0.839465	0.960574
759	C	0.62911	0.803977	0.960631
760	C	0.657407	0.797362	0.960561
761	C	0.692895	0.824493	0.294002
762	C	0.69952	0.85941	0.960551
763	H	0.651879	0.772012	0.963247
764	H	0.724864	0.879224	0.963344
765	H	0.617645	0.844993	0.963264
766	C	0.679652	0.902811	0.966024
767	C	0.720677	0.817223	0.299353
768	C	0.594056	0.776191	0.965927
769	O	0.753227	0.844189	0.975251
770	O	0.652691	0.908391	0.975304
771	O	0.58847	0.743636	0.975131
772	C	0.818232	0.628302	0.039566
773	C	0.854676	0.65258	0.039779
774	C	0.868605	0.689324	0.0396
775	C	0.844317	0.70148	0.039809
776	C	0.807572	0.678669	0.372993
777	C	0.795412	0.642224	0.039816
778	H	0.85382	0.727765	0.037083
779	H	0.769128	0.625449	0.037092
780	H	0.871457	0.643081	0.03697
781	C	0.805753	0.591894	0.033927
782	C	0.783637	0.691145	0.367394
783	C	0.905007	0.713256	0.033919
784	O	0.748898	0.667422	0.031072
785	O	0.829475	0.580875	0.030994
786	O	0.916021	0.747996	0.030984
787	C	0.737415	0.772311	0.310078
788	C	0.735725	0.742245	0.291017
789	C	0.754341	0.726563	0.308671
790	C	0.774073	0.739856	0.015332
791	C	0.776527	0.770571	0.034489
792	H	0.721804	0.732295	0.262252
793	C	0.75831	0.78612	0.015208
794	H	0.758673	0.806555	0.03166
795	N	0.756307	0.700354	0.283528
796	N	0.795347	0.784234	0.074692
797	O	0.726581	0.674396	0.275678
798	O	0.775716	0.782766	0.105958
799	O	0.771912	0.712143	0.247184
800	O	0.819612	0.815397	0.070228
801	N	0.717274	0.785038	0.292706
802	H	0.698758	0.769628	0.272296
803	N	0.792607	0.725604	0.033827
804	H	0.812896	0.741069	0.051685
805	C	0.724559	0.964472	0.310047
806	C	0.754617	0.992837	0.290971
807	C	0.770323	0.527147	0.308607
808	C	0.757044	0.533592	0.015277
809	C	0.726321	0.505344	0.034438
810	H	0.764586	0.988852	0.26223
811	C	0.710738	0.971577	0.01515
812	H	0.690346	0.951512	0.031665
813	N	0.796541	0.555303	0.28346
814	N	0.712685	0.510513	0.074656
815	O	0.822491	0.551514	0.275626
816	O	0.71415	0.492342	0.105913
817	O	0.784764	0.55912	0.247107
818	O	0.681526	0.503636	0.070219
819	N	0.711842	0.931593	0.292715
820	H	0.727251	0.928478	0.272315
821	N	0.771302	0.566387	0.033754
822	H	0.75583	0.571218	0.05159
823	C	0.532406	0.75945	0.309964
824	C	0.504047	0.761184	0.290932
825	C	0.969741	0.742567	0.308571
826	C	0.9633	0.722842	0.015239
827	C	0.991551	0.720354	0.034373
828	H	0.508017	0.775098	0.26216
829	C	0.525308	0.73852	0.015061
830	H	0.545375	0.738176	0.031551
831	N	0.941577	0.740629	0.283436
832	N	0.986387	0.701546	0.074589
833	O	0.945361	0.770364	0.275608
834	O	0.004578	0.721179	0.105837
835	O	0.937757	0.725035	0.24708
836	O	0.993242	0.677252	0.070136
837	N	0.565279	0.779602	0.292612
838	H	0.568397	0.798137	0.27223
839	N	0.930513	0.704312	0.033732
840	H	0.925683	0.684011	0.051568
841	C	0.67238	0.867757	0.29403
842	C	0.637467	0.839465	0.293905
843	C	0.62911	0.803977	0.293964
844	C	0.657407	0.797362	0.293893
845	C	0.692895	0.824493	0.627335
846	C	0.69952	0.85941	0.293885
847	H	0.651879	0.772012	0.296581
848	H	0.724864	0.879224	0.296678
849	H	0.617645	0.844993	0.296595
850	C	0.679652	0.902811	0.299356
851	C	0.720677	0.817223	0.632685
852	C	0.594056	0.776191	0.29926
853	O	0.753227	0.844189	0.308583
854	O	0.652691	0.908391	0.308636
855	O	0.58847	0.743636	0.308462
856	C	0.818232	0.628302	0.3729
857	C	0.854676	0.65258	0.373113
858	C	0.868605	0.689324	0.372933
859	C	0.844317	0.70148	0.373143
860	C	0.807572	0.678669	0.706328
861	C	0.795412	0.642224	0.373149
862	H	0.85382	0.727765	0.370416
863	H	0.769128	0.625449	0.370426
864	H	0.871457	0.643081	0.370303
865	C	0.805753	0.591894	0.367261
866	C	0.783637	0.691145	0.700725
867	C	0.905007	0.713256	0.367254
868	O	0.748898	0.667422	0.364404
869	O	0.829475	0.580875	0.364328
870	O	0.916021	0.747996	0.364318
871	C	0.737415	0.772311	0.643412
872	C	0.735725	0.742245	0.624349
873	C	0.754341	0.726563	0.642005
874	C	0.774073	0.739856	0.348667
875	C	0.776527	0.770571	0.367823
876	H	0.721804	0.732295	0.595584
877	C	0.75831	0.78612	0.348541
878	H	0.758673	0.806555	0.364993
879	N	0.756307	0.700354	0.616861
880	N	0.795347	0.784234	0.408026
881	O	0.726581	0.674396	0.609011
882	O	0.775716	0.782766	0.439291
883	O	0.771912	0.712143	0.580519
884	O	0.819612	0.815397	0.403563
885	N	0.717274	0.785038	0.626038
886	H	0.698758	0.769628	0.605629
887	N	0.792607	0.725604	0.367161
888	H	0.812896	0.741069	0.38502
889	C	0.724559	0.964472	0.643382
890	C	0.754617	0.992837	0.624306
891	C	0.770323	0.527147	0.641942
892	C	0.757044	0.533592	0.34861
893	C	0.726321	0.505344	0.367773
894	H	0.764586	0.988852	0.595564
895	C	0.710738	0.971577	0.348484
896	H	0.690346	0.951512	0.365
897	N	0.796541	0.555303	0.616795
898	N	0.712685	0.510513	0.407989
899	O	0.822491	0.551514	0.608961
900	O	0.71415	0.492342	0.439248
901	O	0.784764	0.55912	0.580442
902	O	0.681526	0.503636	0.403553
903	N	0.711842	0.931593	0.626048
904	H	0.727251	0.928478	0.605649
905	N	0.771302	0.566387	0.367088
906	H	0.75583	0.571218	0.384923
907	C	0.532406	0.75945	0.643299
908	C	0.504047	0.761184	0.624266
909	C	0.969741	0.742567	0.641906
910	C	0.9633	0.722842	0.348574
911	C	0.991551	0.720354	0.367706
912	H	0.508017	0.775098	0.595495
913	C	0.525308	0.73852	0.348394
914	H	0.545375	0.738176	0.364887
915	N	0.941577	0.740629	0.616768
916	N	0.986387	0.701546	0.407923
917	O	0.945361	0.770364	0.608941
918	O	0.004578	0.721179	0.439171
919	O	0.937757	0.725035	0.580412
920	O	0.993242	0.677252	0.40347
921	N	0.565279	0.779602	0.625945
922	H	0.568397	0.798137	0.605563
923	N	0.930513	0.704312	0.367064
924	H	0.925683	0.684011	0.384903
925	C	0.67238	0.867757	0.627365
926	C	0.637467	0.839465	0.627239
927	C	0.62911	0.803977	0.627299
928	C	0.657407	0.797362	0.627225
929	C	0.692895	0.824493	0.96067
930	C	0.69952	0.85941	0.627219
931	H	0.651879	0.772012	0.629915
932	H	0.724864	0.879224	0.630012
933	H	0.617645	0.844993	0.629929
934	C	0.679652	0.902811	0.632689
935	C	0.720677	0.817223	0.96602
936	C	0.594056	0.776191	0.632592
937	O	0.753227	0.844189	0.641916
938	O	0.652691	0.908391	0.641969
939	O	0.58847	0.743636	0.641796
940	C	0.818232	0.628302	0.706235
941	C	0.854676	0.65258	0.706448
942	C	0.868605	0.689324	0.706268
943	C	0.844317	0.70148	0.706478
944	C	0.807572	0.678669	0.03966
945	C	0.795412	0.642224	0.706484
946	H	0.85382	0.727765	0.703751
947	H	0.769128	0.625449	0.703761
948	H	0.871457	0.643081	0.703638
949	C	0.805753	0.591894	0.700592
950	C	0.783637	0.691145	0.034059
951	C	0.905007	0.713256	0.700586
952	O	0.748898	0.667422	0.69774
953	O	0.829475	0.580875	0.697663
954	O	0.916021	0.747996	0.69765
955	C	0.737415	0.772311	0.976747
956	C	0.735725	0.742245	0.957685
957	C	0.754341	0.726563	0.975337
958	C	0.774073	0.739856	0.681999
959	C	0.776527	0.770571	0.701158
960	H	0.721804	0.732295	0.92892
961	C	0.75831	0.78612	0.681876
962	H	0.758673	0.806555	0.698328
963	N	0.756307	0.700354	0.950197
964	N	0.795347	0.784234	0.741361
965	O	0.726581	0.674396	0.942346
966	O	0.775716	0.782766	0.772626
967	O	0.771912	0.712143	0.913851
968	O	0.819612	0.815397	0.736895
969	N	0.717274	0.785038	0.959374
970	H	0.698758	0.769628	0.938965
971	N	0.792607	0.725604	0.700493
972	H	0.812896	0.741069	0.718352
973	C	0.724559	0.964472	0.976714
974	C	0.754617	0.992837	0.957638
975	C	0.770323	0.527147	0.975274
976	C	0.757044	0.533592	0.681946
977	C	0.726321	0.505344	0.701105
978	H	0.764586	0.988852	0.928896
979	C	0.710738	0.971577	0.681816
980	H	0.690346	0.951512	0.698331
981	N	0.796541	0.555303	0.950127
982	N	0.712685	0.510513	0.741324
983	O	0.822491	0.551514	0.942293
984	O	0.71415	0.492342	0.77258
985	O	0.784764	0.55912	0.913774
986	O	0.681526	0.503636	0.736885
987	N	0.711842	0.931593	0.959384
988	H	0.727251	0.928478	0.938981
989	N	0.771302	0.566387	0.700423
990	H	0.75583	0.571218	0.718258
991	C	0.532406	0.75945	0.976631
992	C	0.504047	0.761184	0.957598
993	C	0.969741	0.742567	0.975237
994	C	0.9633	0.722842	0.681906
995	C	0.991551	0.720354	0.701041
996	H	0.508017	0.775098	0.928827
997	C	0.525308	0.73852	0.68173
998	H	0.545375	0.738176	0.698218
999	N	0.941577	0.740629	0.950103
1000	N	0.986387	0.701546	0.741258
1001	O	0.945361	0.770364	0.942276
1002	O	0.004578	0.721179	0.772503
1003	O	0.937757	0.725035	0.913747
1004	O	0.993242	0.677252	0.736805
1005	N	0.565279	0.779602	0.959281
1006	H	0.568397	0.798137	0.938898
1007	N	0.930513	0.704312	0.7004
1008	H	0.925683	0.684011	0.718235
