data_C396H288N144O108_2018-02-15_10:32:48
#******************************************
#
# CIF file created by Zeo++
# Zeo++ is an open source package to
# analyze microporous materials
#
#*******************************************

_cell_length_a		43.6167   
_cell_length_b		43.6168   
_cell_length_c		30.1014   
_cell_angle_alpha		90   
_cell_angle_beta		90   
_cell_angle_gamma		120   

_symmetry_space_group_name_H-M		'P1'
_symmetry_Int_Tables_number		1
_symmetry_cell_setting		Monoclinic

loop_
_symmetry_equiv_pos_as_xyz
'+x,+y,+z'

loop_
_atom_site_label
_atom_site_type_symbol
_atom_site_fract_x
_atom_site_fract_y
_atom_site_fract_z
1	C	0.175978	0.368846	0.956052
2	C	0.139494	0.34314	0.955597
3	C	0.126913	0.306273	0.955979
4	C	0.152628	0.295503	0.955564
5	C	0.189496	0.31979	0.289324
6	C	0.200276	0.356279	0.955541
7	H	0.144077	0.26913	0.958358
8	H	0.226641	0.374091	0.958454
9	H	0.121672	0.351688	0.958414
10	C	0.187222	0.405234	0.962829
11	C	0.214649	0.308555	0.29609
12	C	0.090524	0.281115	0.962716
13	O	0.248173	0.333387	0.974144
14	O	0.162395	0.413918	0.974274
15	O	0.081831	0.24759	0.974098
16	C	0.321617	0.128372	0.042526
17	C	0.357348	0.156079	0.042638
18	C	0.36743	0.192415	0.042569
19	C	0.339715	0.20043	0.042656
20	C	0.303378	0.174181	0.375933
21	C	0.295362	0.138451	0.042656
22	H	0.346433	0.226332	0.039892
23	H	0.269458	0.119271	0.039884
24	H	0.37653	0.149365	0.03981
25	C	0.313125	0.092472	0.037561
26	C	0.275963	0.182666	0.37098
27	C	0.403325	0.219825	0.037572
28	O	0.242239	0.155685	0.032569
29	O	0.340105	0.085721	0.032524
30	O	0.410072	0.253554	0.032534
31	C	0.268301	0.263904	0.031734
32	C	0.260964	0.229081	0.021464
33	C	0.234344	0.211144	0.32226
34	N	0.21776	0.226843	0.30268
35	C	0.225775	0.260428	0.312395
36	N	0.250971	0.278102	0.010363
37	O	0.293168	0.284837	0.062446
38	H	0.22812	0.186765	0.310743
39	C	0.278505	0.282192	0.106012
40	H	0.25893	0.29086	0.10604
41	H	0.299944	0.299432	0.128326
42	H	0.266409	0.255195	0.118925
43	N	0.280988	0.21615	0.039784
44	H	0.301694	0.233126	0.056297
45	N	0.207306	0.274313	0.29292
46	H	0.186931	0.257971	0.275262
47	C	0.231901	0.003556	0.031765
48	C	0.266713	0.031045	0.021456
49	C	0.284635	0.022356	0.322237
50	N	0.26893	0.490064	0.302673
51	C	0.235355	0.464493	0.312424
52	N	0.217698	0.472022	0.01041
53	O	0.210985	0.007495	0.062496
54	H	0.309005	0.040512	0.310696
55	C	0.213663	0.995497	0.106062
56	H	0.205002	0.467257	0.106103
57	H	0.196431	0.9997	0.128391
58	H	0.240668	0.510412	0.118946
59	N	0.279647	0.064006	0.039754
60	H	0.262677	0.06774	0.056276
61	N	0.22146	0.432134	0.292959
62	H	0.237791	0.4281	0.275279
63	C	0.492229	0.227491	0.031701
64	C	0.464742	0.234828	0.021425
65	C	0.473426	0.26144	0.32221
66	N	0.005708	0.278017	0.302625
67	C	0.031274	0.269998	0.312344
68	N	0.023753	0.244811	0.010324
69	O	0.488293	0.202631	0.062424
70	H	0.455272	0.267666	0.310693
71	C	0.500316	0.217303	0.105985
72	H	0.028558	0.236875	0.106007
73	H	0.496117	0.195868	0.128307
74	H	0.985417	0.229404	0.118891
75	N	0.43179	0.21481	0.039748
76	H	0.428058	0.194107	0.056271
77	N	0.063628	0.288461	0.292867
78	H	0.067667	0.308838	0.275209
79	C	0.175978	0.368846	0.289385
80	C	0.139494	0.34314	0.288929
81	C	0.126913	0.306273	0.289312
82	C	0.152628	0.295503	0.288896
83	C	0.189496	0.31979	0.622656
84	C	0.200276	0.356279	0.288873
85	H	0.144077	0.26913	0.29169
86	H	0.226641	0.374091	0.291789
87	H	0.121672	0.351688	0.291747
88	C	0.187222	0.405234	0.296164
89	C	0.214649	0.308555	0.629423
90	C	0.090524	0.281115	0.296049
91	O	0.248173	0.333387	0.307479
92	O	0.162395	0.413918	0.307608
93	O	0.081831	0.24759	0.307433
94	C	0.321617	0.128372	0.37586
95	C	0.357348	0.156079	0.375973
96	C	0.36743	0.192415	0.375903
97	C	0.339715	0.20043	0.375989
98	C	0.303378	0.174181	0.709266
99	C	0.295362	0.138451	0.375989
100	H	0.346433	0.226332	0.373225
101	H	0.269458	0.119271	0.373219
102	H	0.37653	0.149365	0.373142
103	C	0.313125	0.092472	0.370893
104	C	0.275963	0.182666	0.704313
105	C	0.403325	0.219825	0.370906
106	O	0.242239	0.155685	0.365903
107	O	0.340105	0.085721	0.365857
108	O	0.410072	0.253554	0.365867
109	C	0.268301	0.263904	0.365066
110	C	0.260964	0.229081	0.354798
111	C	0.234344	0.211144	0.655594
112	N	0.21776	0.226843	0.636014
113	C	0.225775	0.260428	0.645728
114	N	0.250971	0.278102	0.343695
115	O	0.293168	0.284837	0.395779
116	H	0.22812	0.186765	0.644077
117	C	0.278505	0.282192	0.439345
118	H	0.25893	0.29086	0.439375
119	H	0.299944	0.299432	0.46166
120	H	0.266409	0.255195	0.452258
121	N	0.280988	0.21615	0.373119
122	H	0.301694	0.233126	0.38963
123	N	0.207306	0.274313	0.626253
124	H	0.186931	0.257971	0.608596
125	C	0.231901	0.003556	0.365099
126	C	0.266713	0.031045	0.354791
127	C	0.284635	0.022356	0.655571
128	N	0.26893	0.490064	0.636007
129	C	0.235355	0.464493	0.645758
130	N	0.217698	0.472022	0.343742
131	O	0.210985	0.007495	0.395829
132	H	0.309005	0.040512	0.64403
133	C	0.213663	0.995497	0.439395
134	H	0.205002	0.467257	0.439435
135	H	0.196431	0.9997	0.461723
136	H	0.240668	0.510412	0.452278
137	N	0.279647	0.064006	0.373089
138	H	0.262677	0.06774	0.38961
139	N	0.22146	0.432134	0.626293
140	H	0.237791	0.4281	0.608613
141	C	0.492229	0.227491	0.365036
142	C	0.464742	0.234828	0.354758
143	C	0.473426	0.26144	0.655544
144	N	0.005708	0.278017	0.635957
145	C	0.031274	0.269998	0.645678
146	N	0.023753	0.244811	0.343655
147	O	0.488293	0.202631	0.395756
148	H	0.455272	0.267666	0.644027
149	C	0.500316	0.217303	0.439319
150	H	0.028558	0.236875	0.439342
151	H	0.496117	0.195868	0.46164
152	H	0.985417	0.229404	0.452225
153	N	0.43179	0.21481	0.373079
154	H	0.428058	0.194107	0.389603
155	N	0.063628	0.288461	0.6262
156	H	0.067667	0.308838	0.608543
157	C	0.175978	0.368846	0.622719
158	C	0.139494	0.34314	0.622264
159	C	0.126913	0.306273	0.622646
160	C	0.152628	0.295503	0.62223
161	C	0.189496	0.31979	0.955989
162	C	0.200276	0.356279	0.622207
163	H	0.144077	0.26913	0.625024
164	H	0.226641	0.374091	0.625124
165	H	0.121672	0.351688	0.625081
166	C	0.187222	0.405234	0.629496
167	C	0.214649	0.308555	0.962756
168	C	0.090524	0.281115	0.629383
169	O	0.248173	0.333387	0.640811
170	O	0.162395	0.413918	0.64094
171	O	0.081831	0.24759	0.640768
172	C	0.321617	0.128372	0.709193
173	C	0.357348	0.156079	0.709306
174	C	0.36743	0.192415	0.709236
175	C	0.339715	0.20043	0.709323
176	C	0.303378	0.174181	0.0426
177	C	0.295362	0.138451	0.709323
178	H	0.346433	0.226332	0.706559
179	H	0.269458	0.119271	0.706552
180	H	0.37653	0.149365	0.706476
181	C	0.313125	0.092472	0.704227
182	C	0.275963	0.182666	0.037648
183	C	0.403325	0.219825	0.70424
184	O	0.242239	0.155685	0.699237
185	O	0.340105	0.085721	0.69919
186	O	0.410072	0.253554	0.6992
187	C	0.268301	0.263904	0.6984
188	C	0.260964	0.229081	0.688131
189	C	0.234344	0.211144	0.988928
190	N	0.21776	0.226843	0.969347
191	C	0.225775	0.260428	0.979061
192	N	0.250971	0.278102	0.677029
193	O	0.293168	0.284837	0.729112
194	H	0.22812	0.186765	0.97741
195	C	0.278505	0.282192	0.772679
196	H	0.25893	0.29086	0.772705
197	H	0.299944	0.299432	0.794993
198	H	0.266409	0.255195	0.785592
199	N	0.280988	0.21615	0.706449
200	H	0.301694	0.233126	0.722963
201	N	0.207306	0.274313	0.959587
202	H	0.186931	0.257971	0.94193
203	C	0.231901	0.003556	0.698433
204	C	0.266713	0.031045	0.688121
205	C	0.284635	0.022356	0.988904
206	N	0.26893	0.490064	0.969341
207	C	0.235355	0.464493	0.979091
208	N	0.217698	0.472022	0.677075
209	O	0.210985	0.007495	0.729162
210	H	0.309005	0.040512	0.977363
211	C	0.213663	0.995497	0.772728
212	H	0.205002	0.467257	0.772768
213	H	0.196431	0.9997	0.795056
214	H	0.240668	0.510412	0.785612
215	N	0.279647	0.064006	0.706419
216	H	0.262677	0.06774	0.722943
217	N	0.22146	0.432134	0.959623
218	H	0.237791	0.4281	0.941947
219	C	0.492229	0.227491	0.698366
220	C	0.464742	0.234828	0.688091
221	C	0.473426	0.26144	0.988878
222	N	0.005708	0.278017	0.969291
223	C	0.031274	0.269998	0.979011
224	N	0.023753	0.244811	0.676989
225	O	0.488293	0.202631	0.729089
226	H	0.455272	0.267666	0.97736
227	C	0.500316	0.217303	0.772652
228	H	0.028558	0.236875	0.772675
229	H	0.496117	0.195868	0.794973
230	H	0.985417	0.229404	0.785558
231	N	0.43179	0.21481	0.706413
232	H	0.428058	0.194107	0.722937
233	N	0.063628	0.288461	0.959534
234	H	0.067667	0.308838	0.941877
235	C	0.175977	0.868846	0.956052
236	C	0.139493	0.84314	0.955597
237	C	0.126913	0.806272	0.955979
238	C	0.152628	0.795503	0.955564
239	C	0.189497	0.81979	0.289324
240	C	0.200277	0.856279	0.955541
241	H	0.144078	0.76913	0.958358
242	H	0.226642	0.87409	0.958454
243	H	0.121673	0.851688	0.958414
244	C	0.187222	0.905234	0.962829
245	C	0.214649	0.808555	0.29609
246	C	0.090524	0.781114	0.962716
247	O	0.248173	0.833387	0.974144
248	O	0.162396	0.913918	0.974274
249	O	0.081831	0.747588	0.974098
250	C	0.321617	0.628371	0.042526
251	C	0.357348	0.656079	0.042638
252	C	0.36743	0.692414	0.042569
253	C	0.339716	0.70043	0.042656
254	C	0.303379	0.674182	0.375933
255	C	0.295362	0.63845	0.042656
256	H	0.346434	0.726332	0.039892
257	H	0.269458	0.61927	0.039884
258	H	0.376531	0.649365	0.03981
259	C	0.313124	0.59247	0.037561
260	C	0.275964	0.682666	0.37098
261	C	0.403326	0.719825	0.037572
262	O	0.24224	0.655684	0.032569
263	O	0.340105	0.585722	0.032524
264	O	0.410073	0.753553	0.032534
265	C	0.268302	0.763904	0.031734
266	C	0.260965	0.72908	0.021464
267	C	0.234345	0.711144	0.32226
268	N	0.217761	0.726843	0.30268
269	C	0.225775	0.760428	0.312395
270	N	0.250972	0.778102	0.010363
271	O	0.293168	0.784837	0.062446
272	H	0.22812	0.686765	0.310743
273	C	0.278506	0.782192	0.106012
274	H	0.258931	0.790859	0.10604
275	H	0.299944	0.799432	0.128326
276	H	0.266409	0.755194	0.118925
277	N	0.280989	0.71615	0.039784
278	H	0.301694	0.733125	0.056297
279	N	0.207307	0.774313	0.29292
280	H	0.186932	0.757971	0.275262
281	C	0.231902	0.503555	0.031765
282	C	0.266713	0.531043	0.021456
283	C	0.284635	0.522354	0.322237
284	N	0.268931	0.990064	0.302673
285	C	0.235356	0.964493	0.312424
286	N	0.217699	0.97202	0.01041
287	O	0.210985	0.507495	0.062496
288	H	0.309005	0.54051	0.310696
289	C	0.213663	0.495499	0.106062
290	H	0.205002	0.967257	0.106103
291	H	0.196431	0.499698	0.128391
292	H	0.240666	0.010411	0.118946
293	N	0.279647	0.564006	0.039754
294	H	0.262677	0.567738	0.056276
295	N	0.22146	0.932134	0.292959
296	H	0.237792	0.9281	0.275279
297	C	0.492228	0.727489	0.031701
298	C	0.464744	0.734828	0.021425
299	C	0.473426	0.761439	0.32221
300	N	0.005709	0.778017	0.302625
301	C	0.031275	0.769998	0.312344
302	N	0.023753	0.744811	0.010324
303	O	0.488294	0.70263	0.062424
304	H	0.455273	0.767666	0.310693
305	C	0.500315	0.717302	0.105985
306	H	0.028559	0.736874	0.106007
307	H	0.496116	0.695866	0.128307
308	H	0.985417	0.729403	0.118891
309	N	0.431789	0.714808	0.039748
310	H	0.428058	0.694106	0.056271
311	N	0.063629	0.788461	0.292867
312	H	0.067668	0.808838	0.275209
313	C	0.175977	0.868846	0.289385
314	C	0.139493	0.84314	0.288929
315	C	0.126913	0.806272	0.289312
316	C	0.152628	0.795503	0.288896
317	C	0.189497	0.81979	0.622656
318	C	0.200277	0.856279	0.288873
319	H	0.144078	0.76913	0.29169
320	H	0.226642	0.87409	0.291789
321	H	0.121673	0.851688	0.291747
322	C	0.187222	0.905234	0.296164
323	C	0.214649	0.808555	0.629423
324	C	0.090524	0.781114	0.296049
325	O	0.248173	0.833387	0.307479
326	O	0.162396	0.913918	0.307608
327	O	0.081831	0.747588	0.307433
328	C	0.321617	0.628371	0.37586
329	C	0.357348	0.656079	0.375973
330	C	0.36743	0.692414	0.375903
331	C	0.339716	0.70043	0.375989
332	C	0.303379	0.674182	0.709266
333	C	0.295362	0.63845	0.375989
334	H	0.346434	0.726332	0.373225
335	H	0.269458	0.61927	0.373219
336	H	0.376531	0.649365	0.373142
337	C	0.313124	0.59247	0.370893
338	C	0.275964	0.682666	0.704313
339	C	0.403326	0.719825	0.370906
340	O	0.24224	0.655684	0.365903
341	O	0.340105	0.585722	0.365857
342	O	0.410073	0.753553	0.365867
343	C	0.268302	0.763904	0.365066
344	C	0.260965	0.72908	0.354798
345	C	0.234345	0.711144	0.655594
346	N	0.217761	0.726843	0.636014
347	C	0.225775	0.760428	0.645728
348	N	0.250972	0.778102	0.343695
349	O	0.293168	0.784837	0.395779
350	H	0.22812	0.686765	0.644077
351	C	0.278506	0.782192	0.439345
352	H	0.258931	0.790859	0.439372
353	H	0.299944	0.799432	0.46166
354	H	0.266409	0.755194	0.452258
355	N	0.280989	0.71615	0.373119
356	H	0.301694	0.733125	0.38963
357	N	0.207307	0.774313	0.626253
358	H	0.186932	0.757971	0.608596
359	C	0.231902	0.503555	0.365099
360	C	0.266713	0.531043	0.354791
361	C	0.284635	0.522354	0.655571
362	N	0.268931	0.990064	0.636007
363	C	0.235356	0.964493	0.645758
364	N	0.217699	0.97202	0.343742
365	O	0.210985	0.507495	0.395829
366	H	0.309005	0.54051	0.64403
367	C	0.213663	0.495499	0.439395
368	H	0.205002	0.967257	0.439435
369	H	0.196431	0.499698	0.461723
370	H	0.240666	0.010411	0.452278
371	N	0.279647	0.564006	0.373089
372	H	0.262677	0.567738	0.38961
373	N	0.22146	0.932134	0.626293
374	H	0.237792	0.9281	0.608613
375	C	0.492228	0.727489	0.365036
376	C	0.464744	0.734828	0.354758
377	C	0.473426	0.761439	0.655544
378	N	0.005709	0.778017	0.635957
379	C	0.031275	0.769998	0.645678
380	N	0.023753	0.744811	0.343655
381	O	0.488294	0.70263	0.395756
382	H	0.455273	0.767666	0.644027
383	C	0.500315	0.717302	0.439319
384	H	0.028559	0.736874	0.439342
385	H	0.496116	0.695866	0.46164
386	H	0.985417	0.729403	0.452225
387	N	0.431789	0.714808	0.373079
388	H	0.428058	0.694106	0.389603
389	N	0.063629	0.788461	0.6262
390	H	0.067668	0.808838	0.608543
391	C	0.175977	0.868846	0.622719
392	C	0.139493	0.84314	0.622264
393	C	0.126913	0.806272	0.622646
394	C	0.152628	0.795503	0.62223
395	C	0.189497	0.81979	0.955989
396	C	0.200277	0.856279	0.622207
397	H	0.144078	0.76913	0.625024
398	H	0.226642	0.87409	0.625124
399	H	0.121673	0.851688	0.625081
400	C	0.187222	0.905234	0.629496
401	C	0.214649	0.808555	0.962756
402	C	0.090524	0.781114	0.629383
403	O	0.248173	0.833387	0.640811
404	O	0.162396	0.913918	0.64094
405	O	0.081831	0.747588	0.640768
406	C	0.321617	0.628371	0.709193
407	C	0.357348	0.656079	0.709306
408	C	0.36743	0.692414	0.709236
409	C	0.339716	0.70043	0.709323
410	C	0.303379	0.674182	0.0426
411	C	0.295362	0.63845	0.709323
412	H	0.346434	0.726332	0.706559
413	H	0.269458	0.61927	0.706552
414	H	0.376531	0.649365	0.706476
415	C	0.313124	0.59247	0.704227
416	C	0.275964	0.682666	0.037648
417	C	0.403326	0.719825	0.70424
418	O	0.24224	0.655684	0.699237
419	O	0.340105	0.585722	0.69919
420	O	0.410073	0.753553	0.6992
421	C	0.268302	0.763904	0.6984
422	C	0.260965	0.72908	0.688131
423	C	0.234345	0.711144	0.988928
424	N	0.217761	0.726843	0.969347
425	C	0.225775	0.760428	0.979061
426	N	0.250972	0.778102	0.677029
427	O	0.293168	0.784837	0.729112
428	H	0.22812	0.686765	0.97741
429	C	0.278506	0.782192	0.772679
430	H	0.258931	0.790859	0.772705
431	H	0.299944	0.799432	0.794993
432	H	0.266409	0.755194	0.785592
433	N	0.280989	0.71615	0.706449
434	H	0.301694	0.733125	0.722963
435	N	0.207307	0.774313	0.959587
436	H	0.186932	0.757971	0.94193
437	C	0.231902	0.503555	0.698433
438	C	0.266713	0.531043	0.688121
439	C	0.284635	0.522354	0.988904
440	N	0.268931	0.990064	0.969341
441	C	0.235356	0.964493	0.979091
442	N	0.217699	0.97202	0.677075
443	O	0.210985	0.507495	0.729162
444	H	0.309005	0.54051	0.977363
445	C	0.213663	0.495499	0.772728
446	H	0.205002	0.967257	0.772768
447	H	0.196431	0.499698	0.795056
448	H	0.240666	0.010411	0.785612
449	N	0.279647	0.564006	0.706419
450	H	0.262677	0.567738	0.722943
451	N	0.22146	0.932134	0.959623
452	H	0.237792	0.9281	0.941947
453	C	0.492228	0.727489	0.698366
454	C	0.464744	0.734828	0.688091
455	C	0.473426	0.761439	0.988878
456	N	0.005709	0.778017	0.969291
457	C	0.031275	0.769998	0.979011
458	N	0.023753	0.744811	0.676989
459	O	0.488294	0.70263	0.729089
460	H	0.455273	0.767666	0.97736
461	C	0.500315	0.717302	0.772652
462	H	0.028559	0.736874	0.772675
463	H	0.496116	0.695866	0.794973
464	H	0.985417	0.729403	0.785558
465	N	0.431789	0.714808	0.706413
466	H	0.428058	0.694106	0.722937
467	N	0.063629	0.788461	0.959534
468	H	0.067668	0.808838	0.941877
469	C	0.675978	0.368846	0.956052
470	C	0.639494	0.34314	0.955597
471	C	0.626914	0.306273	0.955979
472	C	0.652627	0.295503	0.955564
473	C	0.689495	0.31979	0.289324
474	C	0.700277	0.356279	0.955541
475	H	0.644077	0.26913	0.958358
476	H	0.726642	0.374091	0.958454
477	H	0.621672	0.351688	0.958414
478	C	0.687221	0.405234	0.962829
479	C	0.714648	0.308555	0.29609
480	C	0.590525	0.281115	0.962716
481	O	0.748173	0.333387	0.974144
482	O	0.662395	0.413918	0.974274
483	O	0.581831	0.24759	0.974098
484	C	0.821616	0.128372	0.042526
485	C	0.857347	0.156079	0.042638
486	C	0.867431	0.192415	0.042569
487	C	0.839716	0.20043	0.042656
488	C	0.803378	0.174181	0.375933
489	C	0.795362	0.138451	0.042656
490	H	0.846434	0.226332	0.039892
491	H	0.769458	0.119271	0.039884
492	H	0.876531	0.149365	0.03981
493	C	0.813123	0.092472	0.037561
494	C	0.775963	0.182666	0.37098
495	C	0.903324	0.219825	0.037572
496	O	0.742239	0.155685	0.032569
497	O	0.840104	0.085721	0.032524
498	O	0.910073	0.253554	0.032534
499	C	0.7683	0.263904	0.031734
500	C	0.760965	0.229081	0.021464
501	C	0.734345	0.211144	0.32226
502	N	0.717759	0.226843	0.30268
503	C	0.725775	0.260428	0.312395
504	N	0.750971	0.278102	0.010363
505	O	0.793167	0.284837	0.062446
506	H	0.728119	0.186765	0.310743
507	C	0.778506	0.282192	0.106012
508	H	0.758931	0.29086	0.10604
509	H	0.799944	0.299432	0.128326
510	H	0.766408	0.255195	0.118925
511	N	0.780987	0.21615	0.039784
512	H	0.801693	0.233126	0.056297
513	N	0.707306	0.274313	0.29292
514	H	0.686933	0.257971	0.275262
515	C	0.731902	0.003556	0.031765
516	C	0.766714	0.031045	0.021456
517	C	0.784634	0.022356	0.322237
518	N	0.768931	0.490064	0.302673
519	C	0.735355	0.464493	0.312424
520	N	0.717699	0.472022	0.01041
521	O	0.710984	0.007495	0.062496
522	H	0.809006	0.040512	0.310696
523	C	0.713662	0.995497	0.106062
524	H	0.705001	0.467257	0.106103
525	H	0.696432	0.9997	0.128391
526	H	0.740667	0.510412	0.118946
527	N	0.779645	0.064006	0.039754
528	H	0.762678	0.06774	0.056276
529	N	0.721461	0.432134	0.292959
530	H	0.737792	0.4281	0.275279
531	C	0.992228	0.227491	0.031701
532	C	0.964743	0.234828	0.021425
533	C	0.973425	0.26144	0.32221
534	N	0.505708	0.278017	0.302625
535	C	0.531274	0.269998	0.312344
536	N	0.523752	0.244811	0.010324
537	O	0.988295	0.202631	0.062424
538	H	0.955273	0.267666	0.310693
539	C	0.000315	0.217303	0.105985
540	H	0.528558	0.236875	0.106007
541	H	0.996118	0.195868	0.128307
542	H	0.485418	0.229404	0.118891
543	N	0.931789	0.21481	0.039748
544	H	0.928059	0.194107	0.056271
545	N	0.563628	0.288461	0.292867
546	H	0.567667	0.308838	0.275209
547	C	0.675978	0.368846	0.289385
548	C	0.639494	0.34314	0.288929
549	C	0.626914	0.306273	0.289312
550	C	0.652627	0.295503	0.288896
551	C	0.689495	0.31979	0.622656
552	C	0.700277	0.356279	0.288873
553	H	0.644077	0.26913	0.29169
554	H	0.726642	0.374091	0.291789
555	H	0.621672	0.351688	0.291747
556	C	0.687221	0.405234	0.296164
557	C	0.714648	0.308555	0.629423
558	C	0.590525	0.281115	0.296049
559	O	0.748173	0.333387	0.307479
560	O	0.662395	0.413918	0.307608
561	O	0.581831	0.24759	0.307433
562	C	0.821616	0.128372	0.37586
563	C	0.857347	0.156079	0.375973
564	C	0.867431	0.192415	0.375903
565	C	0.839716	0.20043	0.375989
566	C	0.803378	0.174181	0.709266
567	C	0.795362	0.138451	0.375989
568	H	0.846434	0.226332	0.373225
569	H	0.769458	0.119271	0.373219
570	H	0.876531	0.149365	0.373142
571	C	0.813123	0.092472	0.370893
572	C	0.775963	0.182666	0.704313
573	C	0.903324	0.219825	0.370906
574	O	0.742239	0.155685	0.365903
575	O	0.840104	0.085721	0.365857
576	O	0.910073	0.253554	0.365867
577	C	0.7683	0.263904	0.365066
578	C	0.760965	0.229081	0.354798
579	C	0.734345	0.211144	0.655594
580	N	0.717759	0.226843	0.636014
581	C	0.725775	0.260428	0.645728
582	N	0.750971	0.278102	0.343695
583	O	0.793167	0.284837	0.395779
584	H	0.728119	0.186765	0.644077
585	C	0.778506	0.282192	0.439345
586	H	0.758931	0.29086	0.439375
587	H	0.799944	0.299432	0.46166
588	H	0.766408	0.255195	0.452258
589	N	0.780987	0.21615	0.373119
590	H	0.801693	0.233126	0.38963
591	N	0.707306	0.274313	0.626253
592	H	0.686933	0.257971	0.608596
593	C	0.731902	0.003556	0.365099
594	C	0.766714	0.031045	0.354791
595	C	0.784634	0.022356	0.655571
596	N	0.768931	0.490064	0.636007
597	C	0.735355	0.464493	0.645758
598	N	0.717699	0.472022	0.343742
599	O	0.710984	0.007495	0.395829
600	H	0.809006	0.040512	0.64403
601	C	0.713662	0.995497	0.439395
602	H	0.705001	0.467257	0.439435
603	H	0.696432	0.9997	0.461723
604	H	0.740667	0.510412	0.452278
605	N	0.779645	0.064006	0.373089
606	H	0.762678	0.06774	0.38961
607	N	0.721461	0.432134	0.626293
608	H	0.737792	0.4281	0.608613
609	C	0.992228	0.227491	0.365036
610	C	0.964743	0.234828	0.354758
611	C	0.973425	0.26144	0.655544
612	N	0.505708	0.278017	0.635957
613	C	0.531274	0.269998	0.645678
614	N	0.523752	0.244811	0.343655
615	O	0.988295	0.202631	0.395756
616	H	0.955273	0.267666	0.644027
617	C	0.000315	0.217303	0.439319
618	H	0.528558	0.236875	0.439342
619	H	0.996118	0.195868	0.46164
620	H	0.485418	0.229404	0.452225
621	N	0.931789	0.21481	0.373079
622	H	0.928059	0.194107	0.389603
623	N	0.563628	0.288461	0.6262
624	H	0.567667	0.308838	0.608543
625	C	0.675978	0.368846	0.622719
626	C	0.639494	0.34314	0.622264
627	C	0.626914	0.306273	0.622646
628	C	0.652627	0.295503	0.62223
629	C	0.689495	0.31979	0.955989
630	C	0.700277	0.356279	0.622207
631	H	0.644077	0.26913	0.625024
632	H	0.726642	0.374091	0.625124
633	H	0.621672	0.351688	0.625081
634	C	0.687221	0.405234	0.629496
635	C	0.714648	0.308555	0.962756
636	C	0.590525	0.281115	0.629383
637	O	0.748173	0.333387	0.640811
638	O	0.662395	0.413918	0.64094
639	O	0.581831	0.24759	0.640768
640	C	0.821616	0.128372	0.709193
641	C	0.857347	0.156079	0.709306
642	C	0.867431	0.192415	0.709236
643	C	0.839716	0.20043	0.709323
644	C	0.803378	0.174181	0.0426
645	C	0.795362	0.138451	0.709323
646	H	0.846434	0.226332	0.706559
647	H	0.769458	0.119271	0.706552
648	H	0.876531	0.149365	0.706476
649	C	0.813123	0.092472	0.704227
650	C	0.775963	0.182666	0.037648
651	C	0.903324	0.219825	0.70424
652	O	0.742239	0.155685	0.699237
653	O	0.840104	0.085721	0.69919
654	O	0.910073	0.253554	0.6992
655	C	0.7683	0.263904	0.6984
656	C	0.760965	0.229081	0.688131
657	C	0.734345	0.211144	0.988928
658	N	0.717759	0.226843	0.969347
659	C	0.725775	0.260428	0.979061
660	N	0.750971	0.278102	0.677029
661	O	0.793167	0.284837	0.729112
662	H	0.728119	0.186765	0.97741
663	C	0.778506	0.282192	0.772679
664	H	0.758931	0.29086	0.772705
665	H	0.799944	0.299432	0.794993
666	H	0.766408	0.255195	0.785592
667	N	0.780987	0.21615	0.706449
668	H	0.801693	0.233126	0.722963
669	N	0.707306	0.274313	0.959587
670	H	0.686933	0.257971	0.94193
671	C	0.731902	0.003556	0.698433
672	C	0.766714	0.031045	0.688121
673	C	0.784634	0.022356	0.988904
674	N	0.768931	0.490064	0.969341
675	C	0.735355	0.464493	0.979091
676	N	0.717699	0.472022	0.677075
677	O	0.710984	0.007495	0.729162
678	H	0.809006	0.040512	0.977363
679	C	0.713662	0.995497	0.772728
680	H	0.705001	0.467257	0.772768
681	H	0.696432	0.9997	0.795056
682	H	0.740667	0.510412	0.785612
683	N	0.779645	0.064006	0.706419
684	H	0.762678	0.06774	0.722943
685	N	0.721461	0.432134	0.959623
686	H	0.737792	0.4281	0.941947
687	C	0.992228	0.227491	0.698366
688	C	0.964743	0.234828	0.688091
689	C	0.973425	0.26144	0.988878
690	N	0.505708	0.278017	0.969291
691	C	0.531274	0.269998	0.979011
692	N	0.523752	0.244811	0.676989
693	O	0.988295	0.202631	0.729089
694	H	0.955273	0.267666	0.97736
695	C	0.000315	0.217303	0.772652
696	H	0.528558	0.236875	0.772675
697	H	0.996118	0.195868	0.794973
698	H	0.485418	0.229404	0.785558
699	N	0.931789	0.21481	0.706413
700	H	0.928059	0.194107	0.722937
701	N	0.563628	0.288461	0.959534
702	H	0.567667	0.308838	0.941877
703	C	0.675978	0.868846	0.956052
704	C	0.639494	0.84314	0.955597
705	C	0.626913	0.806272	0.955979
706	C	0.65263	0.795503	0.955564
707	C	0.689498	0.81979	0.289324
708	C	0.700277	0.856279	0.955541
709	H	0.644076	0.76913	0.958358
710	H	0.726642	0.87409	0.958454
711	H	0.621672	0.851688	0.958414
712	C	0.687223	0.905234	0.962829
713	C	0.71465	0.808555	0.29609
714	C	0.590525	0.781114	0.962716
715	O	0.748173	0.833387	0.974144
716	O	0.662395	0.913918	0.974274
717	O	0.581831	0.747588	0.974098
718	C	0.821618	0.628371	0.042526
719	C	0.857349	0.656079	0.042638
720	C	0.86743	0.692414	0.042569
721	C	0.839717	0.70043	0.042656
722	C	0.803379	0.674182	0.375933
723	C	0.795362	0.63845	0.042656
724	H	0.846434	0.726332	0.039892
725	H	0.769459	0.61927	0.039884
726	H	0.876531	0.649365	0.03981
727	C	0.813125	0.59247	0.037561
728	C	0.775963	0.682666	0.37098
729	C	0.903327	0.719825	0.037572
730	O	0.742239	0.655684	0.032569
731	O	0.840104	0.585722	0.032524
732	O	0.910073	0.753553	0.032534
733	C	0.768303	0.763904	0.031734
734	C	0.760965	0.72908	0.021464
735	C	0.734345	0.711144	0.32226
736	N	0.717761	0.726843	0.30268
737	C	0.725775	0.760428	0.312395
738	N	0.750973	0.778102	0.010363
739	O	0.793167	0.784837	0.062446
740	H	0.728121	0.686765	0.310743
741	C	0.778506	0.782192	0.106012
742	H	0.758931	0.790859	0.10604
743	H	0.799944	0.799432	0.128326
744	H	0.76641	0.755194	0.118925
745	N	0.780987	0.71615	0.039784
746	H	0.801695	0.733125	0.056297
747	N	0.707306	0.774313	0.29292
748	H	0.686933	0.757971	0.275262
749	C	0.731902	0.503555	0.031765
750	C	0.766713	0.531043	0.021456
751	C	0.784636	0.522354	0.322237
752	N	0.768931	0.990064	0.302673
753	C	0.735355	0.964493	0.312424
754	N	0.717697	0.97202	0.01041
755	O	0.710986	0.507495	0.062496
756	H	0.809006	0.54051	0.310696
757	C	0.713664	0.495499	0.106062
758	H	0.705002	0.967257	0.106103
759	H	0.696431	0.499698	0.128391
760	H	0.740667	0.010411	0.118946
761	N	0.779648	0.564006	0.039754
762	H	0.762677	0.567738	0.056276
763	N	0.721461	0.932134	0.292959
764	H	0.737792	0.9281	0.275279
765	C	0.992227	0.727489	0.031701
766	C	0.964743	0.734828	0.021425
767	C	0.973427	0.761439	0.32221
768	N	0.505709	0.778017	0.302625
769	C	0.531275	0.769998	0.312344
770	N	0.523753	0.744811	0.010324
771	O	0.988294	0.70263	0.062424
772	H	0.955273	0.767666	0.310693
773	C	0.000317	0.717302	0.105985
774	H	0.528559	0.736874	0.106007
775	H	0.996117	0.695866	0.128307
776	H	0.485418	0.729403	0.118891
777	N	0.93179	0.714808	0.039748
778	H	0.928058	0.694106	0.056271
779	N	0.563629	0.788461	0.292867
780	H	0.567668	0.808838	0.275209
781	C	0.675978	0.868846	0.289385
782	C	0.639494	0.84314	0.288929
783	C	0.626913	0.806272	0.289312
784	C	0.65263	0.795503	0.288896
785	C	0.689498	0.81979	0.622656
786	C	0.700277	0.856279	0.288873
787	H	0.644076	0.76913	0.29169
788	H	0.726642	0.87409	0.291789
789	H	0.621672	0.851688	0.291747
790	C	0.687223	0.905234	0.296164
791	C	0.71465	0.808555	0.629423
792	C	0.590525	0.781114	0.296049
793	O	0.748173	0.833387	0.307479
794	O	0.662395	0.913918	0.307608
795	O	0.581831	0.747588	0.307433
796	C	0.821618	0.628371	0.37586
797	C	0.857349	0.656079	0.375973
798	C	0.86743	0.692414	0.375903
799	C	0.839717	0.70043	0.375989
800	C	0.803379	0.674182	0.709266
801	C	0.795362	0.63845	0.375989
802	H	0.846434	0.726332	0.373225
803	H	0.769459	0.61927	0.373219
804	H	0.876531	0.649365	0.373142
805	C	0.813125	0.59247	0.370893
806	C	0.775963	0.682666	0.704313
807	C	0.903327	0.719825	0.370906
808	O	0.742239	0.655684	0.365903
809	O	0.840104	0.585722	0.365857
810	O	0.910073	0.753553	0.365867
811	C	0.768303	0.763904	0.365066
812	C	0.760965	0.72908	0.354798
813	C	0.734345	0.711144	0.655594
814	N	0.717761	0.726843	0.636014
815	C	0.725775	0.760428	0.645728
816	N	0.750973	0.778102	0.343695
817	O	0.793167	0.784837	0.395779
818	H	0.728121	0.686765	0.644077
819	C	0.778506	0.782192	0.439345
820	H	0.758931	0.790859	0.439372
821	H	0.799944	0.799432	0.46166
822	H	0.76641	0.755194	0.452258
823	N	0.780987	0.71615	0.373119
824	H	0.801695	0.733125	0.38963
825	N	0.707306	0.774313	0.626253
826	H	0.686933	0.757971	0.608596
827	C	0.731902	0.503555	0.365099
828	C	0.766713	0.531043	0.354791
829	C	0.784636	0.522354	0.655571
830	N	0.768931	0.990064	0.636007
831	C	0.735355	0.964493	0.645758
832	N	0.717697	0.97202	0.343742
833	O	0.710986	0.507495	0.395829
834	H	0.809006	0.54051	0.64403
835	C	0.713664	0.495499	0.439395
836	H	0.705002	0.967257	0.439435
837	H	0.696431	0.499698	0.461723
838	H	0.740667	0.010411	0.452278
839	N	0.779648	0.564006	0.373089
840	H	0.762677	0.567738	0.38961
841	N	0.721461	0.932134	0.626293
842	H	0.737792	0.9281	0.608613
843	C	0.992227	0.727489	0.365036
844	C	0.964743	0.734828	0.354758
845	C	0.973427	0.761439	0.655544
846	N	0.505709	0.778017	0.635957
847	C	0.531275	0.769998	0.645678
848	N	0.523753	0.744811	0.343655
849	O	0.988294	0.70263	0.395756
850	H	0.955273	0.767666	0.644027
851	C	0.000317	0.717302	0.439319
852	H	0.528559	0.736874	0.439342
853	H	0.996117	0.695866	0.46164
854	H	0.485418	0.729403	0.452225
855	N	0.93179	0.714808	0.373079
856	H	0.928058	0.694106	0.389603
857	N	0.563629	0.788461	0.6262
858	H	0.567668	0.808838	0.608543
859	C	0.675978	0.868846	0.622719
860	C	0.639494	0.84314	0.622264
861	C	0.626913	0.806272	0.622646
862	C	0.65263	0.795503	0.62223
863	C	0.689498	0.81979	0.955989
864	C	0.700277	0.856279	0.622207
865	H	0.644076	0.76913	0.625024
866	H	0.726642	0.87409	0.625124
867	H	0.621672	0.851688	0.625081
868	C	0.687223	0.905234	0.629496
869	C	0.71465	0.808555	0.962756
870	C	0.590525	0.781114	0.629383
871	O	0.748173	0.833387	0.640811
872	O	0.662395	0.913918	0.64094
873	O	0.581831	0.747588	0.640768
874	C	0.821618	0.628371	0.709193
875	C	0.857349	0.656079	0.709306
876	C	0.86743	0.692414	0.709236
877	C	0.839717	0.70043	0.709323
878	C	0.803379	0.674182	0.0426
879	C	0.795362	0.63845	0.709323
880	H	0.846434	0.726332	0.706559
881	H	0.769459	0.61927	0.706552
882	H	0.876531	0.649365	0.706476
883	C	0.813125	0.59247	0.704227
884	C	0.775963	0.682666	0.037648
885	C	0.903327	0.719825	0.70424
886	O	0.742239	0.655684	0.699237
887	O	0.840104	0.585722	0.69919
888	O	0.910073	0.753553	0.6992
889	C	0.768303	0.763904	0.6984
890	C	0.760965	0.72908	0.688131
891	C	0.734345	0.711144	0.988928
892	N	0.717761	0.726843	0.969347
893	C	0.725775	0.760428	0.979061
894	N	0.750973	0.778102	0.677029
895	O	0.793167	0.784837	0.729112
896	H	0.728121	0.686765	0.97741
897	C	0.778506	0.782192	0.772679
898	H	0.758931	0.790859	0.772705
899	H	0.799944	0.799432	0.794993
900	H	0.76641	0.755194	0.785592
901	N	0.780987	0.71615	0.706449
902	H	0.801695	0.733125	0.722963
903	N	0.707306	0.774313	0.959587
904	H	0.686933	0.757971	0.94193
905	C	0.731902	0.503555	0.698433
906	C	0.766713	0.531043	0.688121
907	C	0.784636	0.522354	0.988904
908	N	0.768931	0.990064	0.969341
909	C	0.735355	0.964493	0.979091
910	N	0.717697	0.97202	0.677075
911	O	0.710986	0.507495	0.729162
912	H	0.809006	0.54051	0.977363
913	C	0.713664	0.495499	0.772728
914	H	0.705002	0.967257	0.772768
915	H	0.696431	0.499698	0.795056
916	H	0.740667	0.010411	0.785612
917	N	0.779648	0.564006	0.706419
918	H	0.762677	0.567738	0.722943
919	N	0.721461	0.932134	0.959623
920	H	0.737792	0.9281	0.941947
921	C	0.992227	0.727489	0.698366
922	C	0.964743	0.734828	0.688091
923	C	0.973427	0.761439	0.988878
924	N	0.505709	0.778017	0.969291
925	C	0.531275	0.769998	0.979011
926	N	0.523753	0.744811	0.676989
927	O	0.988294	0.70263	0.729089
928	H	0.955273	0.767666	0.97736
929	C	0.000317	0.717302	0.772652
930	H	0.528559	0.736874	0.772675
931	H	0.996117	0.695866	0.794973
932	H	0.485418	0.729403	0.785558
933	N	0.93179	0.714808	0.706413
934	H	0.928058	0.694106	0.722937
935	N	0.563629	0.788461	0.959534
936	H	0.567668	0.808838	0.941877
