data_C432H216N144O216_2018-02-15_10:32:47
#******************************************
#
# CIF file created by Zeo++
# Zeo++ is an open source package to
# analyze microporous materials
#
#*******************************************

_cell_length_a		43.5055   
_cell_length_b		43.5055   
_cell_length_c		30.072   
_cell_angle_alpha		90   
_cell_angle_beta		90   
_cell_angle_gamma		120   

_symmetry_space_group_name_H-M		'P1'
_symmetry_Int_Tables_number		1
_symmetry_cell_setting		Monoclinic

loop_
_symmetry_equiv_pos_as_xyz
'+x,+y,+z'

loop_
_atom_site_label
_atom_site_type_symbol
_atom_site_fract_x
_atom_site_fract_y
_atom_site_fract_z
1	C	0.176759	0.369479	0.048126
2	C	0.140169	0.343659	0.048514
3	C	0.127493	0.306666	0.048215
4	C	0.15332	0.295903	0.048535
5	C	0.190315	0.32022	0.381505
6	C	0.201088	0.356816	0.048529
7	H	0.144722	0.269486	0.045857
8	H	0.227496	0.374622	0.04572
9	H	0.122352	0.352259	0.045824
10	C	0.187937	0.406056	0.04199
11	C	0.215719	0.309052	0.375353
12	C	0.090917	0.281255	0.042123
13	O	0.249676	0.334298	0.032667
14	O	0.162691	0.414766	0.032632
15	O	0.082201	0.24729	0.032805
16	C	0.320465	0.128295	0.958364
17	C	0.356844	0.154725	0.958048
18	C	0.368739	0.191571	0.958304
19	C	0.3423	0.201512	0.958048
20	C	0.305454	0.176565	0.291639
21	C	0.29551	0.140184	0.958065
22	H	0.350347	0.227808	0.960675
23	H	0.269214	0.121941	0.960712
24	H	0.375093	0.146681	0.960722
25	C	0.310098	0.091858	0.963971
26	C	0.279382	0.186926	0.297264
27	C	0.405172	0.217648	0.963921
28	O	0.245615	0.161202	0.973255
29	O	0.335823	0.083817	0.973302
30	O	0.413207	0.251411	0.973255
31	C	0.266257	0.234389	0.312829
32	N	0.239268	0.214309	0.008041
33	C	0.219384	0.225217	0.030598
34	C	0.227367	0.260852	0.024951
35	N	0.254206	0.280817	0.329521
36	C	0.274121	0.26998	0.306908
37	C	0.299869	0.29383	0.277972
38	C	0.192738	0.200982	0.058115
39	O	0.318275	0.324435	0.290746
40	O	0.295682	0.290597	0.237239
41	H	0.280792	0.270654	0.223335
42	O	0.200618	0.18498	0.084995
43	O	0.161697	0.184132	0.044907
44	H	0.152715	0.19102	0.023215
45	N	0.285979	0.221073	0.294563
46	H	0.307291	0.237866	0.278863
47	N	0.208295	0.274598	0.044005
48	H	0.187143	0.258091	0.060208
49	C	0.262639	0.031268	0.312852
50	N	0.282709	0.024347	0.008067
51	C	0.271786	0.49355	0.030618
52	C	0.236138	0.465915	0.024993
53	N	0.216192	0.472794	0.329538
54	C	0.22705	0.003542	0.306913
55	C	0.203157	0.005406	0.277999
56	C	0.29601	0.491124	0.05814
57	O	0.172591	0.493483	0.290719
58	O	0.206676	0.004595	0.237269
59	H	0.226669	0.009625	0.223505
60	O	0.312003	0.014994	0.085038
61	O	0.312866	0.476943	0.044923
62	H	0.305982	0.461079	0.023222
63	N	0.275953	0.064309	0.2946
64	H	0.259156	0.068828	0.278908
65	N	0.222388	0.433083	0.044006
66	H	0.238889	0.42843	0.06021
67	C	0.465767	0.23079	0.31281
68	N	0.472659	0.257754	0.008059
69	C	0.003433	0.277613	0.030656
70	C	0.031073	0.269606	0.025062
71	N	0.024217	0.242796	0.329593
72	C	0.493494	0.22292	0.306918
73	C	0.49166	0.197203	0.278003
74	C	0.005831	0.30424	0.0582
75	O	0.004042	0.178834	0.290234
76	O	0.49221	0.201301	0.237237
77	H	0.487011	0.216136	0.223461
78	O	0.481941	0.296336	0.085078
79	O	0.020006	0.335285	0.045013
80	H	0.035882	0.344286	0.023329
81	N	0.432724	0.211052	0.294572
82	H	0.428205	0.189736	0.278886
83	N	0.063892	0.288681	0.044111
84	H	0.068543	0.309843	0.060298
85	C	0.176759	0.369479	0.381458
86	C	0.140169	0.343659	0.381847
87	C	0.127493	0.306666	0.381548
88	C	0.15332	0.295903	0.381867
89	C	0.190315	0.32022	0.714835
90	C	0.201088	0.356816	0.381861
91	H	0.144722	0.269486	0.37919
92	H	0.227496	0.374622	0.379054
93	H	0.122352	0.352259	0.379157
94	C	0.187937	0.406056	0.375323
95	C	0.215719	0.309052	0.708687
96	C	0.090917	0.281255	0.375456
97	O	0.249676	0.334298	0.365999
98	O	0.162691	0.414766	0.365965
99	O	0.082201	0.24729	0.366138
100	C	0.320465	0.128295	0.291699
101	C	0.356844	0.154725	0.291384
102	C	0.368739	0.191571	0.291638
103	C	0.3423	0.201512	0.291382
104	C	0.305454	0.176565	0.624971
105	C	0.29551	0.140184	0.291399
106	H	0.350347	0.227808	0.294009
107	H	0.269214	0.121941	0.294048
108	H	0.375093	0.146681	0.294056
109	C	0.310098	0.091858	0.297305
110	C	0.279382	0.186926	0.630597
111	C	0.405172	0.217648	0.297256
112	O	0.245615	0.161202	0.306588
113	O	0.335823	0.083817	0.306637
114	O	0.413207	0.251411	0.306588
115	C	0.266257	0.234389	0.64616
116	N	0.239268	0.214309	0.341374
117	C	0.219384	0.225217	0.36393
118	C	0.227367	0.260852	0.358284
119	N	0.254206	0.280817	0.662853
120	C	0.274121	0.26998	0.640241
121	C	0.299869	0.29383	0.611304
122	C	0.192738	0.200982	0.391448
123	O	0.318275	0.324435	0.62408
124	O	0.295682	0.290597	0.570571
125	H	0.280792	0.270654	0.556668
126	O	0.200618	0.18498	0.41833
127	O	0.161697	0.184132	0.378239
128	H	0.152715	0.19102	0.356548
129	N	0.285979	0.221073	0.627897
130	H	0.307291	0.237866	0.612195
131	N	0.208295	0.274598	0.377338
132	H	0.187143	0.258091	0.393543
133	C	0.262639	0.031268	0.646187
134	N	0.282709	0.024347	0.341401
135	C	0.271786	0.49355	0.36395
136	C	0.236138	0.465915	0.358327
137	N	0.216192	0.472794	0.66287
138	C	0.22705	0.003542	0.640247
139	C	0.203157	0.005406	0.61133
140	C	0.29601	0.491124	0.391471
141	O	0.172591	0.493483	0.624053
142	O	0.206676	0.004595	0.570601
143	H	0.226669	0.009625	0.556838
144	O	0.312003	0.014994	0.41837
145	O	0.312866	0.476943	0.378256
146	H	0.305982	0.461079	0.356555
147	N	0.275953	0.064309	0.627934
148	H	0.259156	0.068828	0.612241
149	N	0.222388	0.433083	0.377338
150	H	0.238889	0.42843	0.393543
151	C	0.465767	0.23079	0.646143
152	N	0.472659	0.257754	0.341391
153	C	0.003433	0.277613	0.36399
154	C	0.031073	0.269606	0.358397
155	N	0.024217	0.242796	0.662926
156	C	0.493494	0.22292	0.640251
157	C	0.49166	0.197203	0.611337
158	C	0.005831	0.30424	0.391534
159	O	0.004042	0.178834	0.623567
160	O	0.49221	0.201301	0.570568
161	H	0.487011	0.216136	0.556794
162	O	0.481941	0.296336	0.41841
163	O	0.020006	0.335285	0.378346
164	H	0.035882	0.344286	0.356661
165	N	0.432724	0.211052	0.627904
166	H	0.428205	0.189736	0.612218
167	N	0.063892	0.288681	0.377445
168	H	0.068543	0.309843	0.393632
169	C	0.176759	0.369479	0.714792
170	C	0.140169	0.343659	0.715181
171	C	0.127493	0.306666	0.714882
172	C	0.15332	0.295903	0.715201
173	C	0.190315	0.32022	0.04817
174	C	0.201088	0.356816	0.715194
175	H	0.144722	0.269486	0.712524
176	H	0.227496	0.374622	0.712384
177	H	0.122352	0.352259	0.712491
178	C	0.187937	0.406056	0.708657
179	C	0.215719	0.309052	0.04202
180	C	0.090917	0.281255	0.70879
181	O	0.249676	0.334298	0.699332
182	O	0.162691	0.414766	0.699299
183	O	0.082201	0.24729	0.699472
184	C	0.320465	0.128295	0.625031
185	C	0.356844	0.154725	0.624718
186	C	0.368739	0.191571	0.624971
187	C	0.3423	0.201512	0.624715
188	C	0.305454	0.176565	0.958304
189	C	0.29551	0.140184	0.624731
190	H	0.350347	0.227808	0.627342
191	H	0.269214	0.121941	0.627382
192	H	0.375093	0.146681	0.627388
193	C	0.310098	0.091858	0.630637
194	C	0.279382	0.186926	0.963931
195	C	0.405172	0.217648	0.630591
196	O	0.245615	0.161202	0.639922
197	O	0.335823	0.083817	0.639971
198	O	0.413207	0.251411	0.639922
199	C	0.266257	0.234389	0.979494
200	N	0.239268	0.214309	0.674708
201	C	0.219384	0.225217	0.697264
202	C	0.227367	0.260852	0.691618
203	N	0.254206	0.280817	0.996187
204	C	0.274121	0.26998	0.973574
205	C	0.299869	0.29383	0.944637
206	C	0.192738	0.200982	0.724781
207	O	0.318275	0.324435	0.95741
208	O	0.295682	0.290597	0.903905
209	H	0.280792	0.270654	0.890002
210	O	0.200618	0.18498	0.75166
211	O	0.161697	0.184132	0.711573
212	H	0.152715	0.19102	0.689882
213	N	0.285979	0.221073	0.961231
214	H	0.307291	0.237866	0.945528
215	N	0.208295	0.274598	0.710672
216	H	0.187143	0.258091	0.726873
217	C	0.262639	0.031268	0.979517
218	N	0.282709	0.024347	0.674731
219	C	0.271786	0.49355	0.697284
220	C	0.236138	0.465915	0.691657
221	N	0.216192	0.472794	0.996204
222	C	0.22705	0.003542	0.973578
223	C	0.203157	0.005406	0.944664
224	C	0.29601	0.491124	0.724805
225	O	0.172591	0.493483	0.957387
226	O	0.206676	0.004595	0.903935
227	H	0.226669	0.009625	0.890171
228	O	0.312003	0.014994	0.751703
229	O	0.312866	0.476943	0.71159
230	H	0.305982	0.461079	0.689888
231	N	0.275953	0.064309	0.961264
232	H	0.259156	0.068828	0.945575
233	N	0.222388	0.433083	0.710672
234	H	0.238889	0.42843	0.726876
235	C	0.465767	0.23079	0.979477
236	N	0.472659	0.257754	0.674725
237	C	0.003433	0.277613	0.697321
238	C	0.031073	0.269606	0.691727
239	N	0.024217	0.242796	0.99626
240	C	0.493494	0.22292	0.973584
241	C	0.49166	0.197203	0.94467
242	C	0.005831	0.30424	0.724864
243	O	0.004042	0.178834	0.956901
244	O	0.49221	0.201301	0.903902
245	H	0.487011	0.216136	0.890128
246	O	0.481941	0.296336	0.751743
247	O	0.020006	0.335285	0.711679
248	H	0.035882	0.344286	0.689995
249	N	0.432724	0.211052	0.961237
250	H	0.428205	0.189736	0.945552
251	N	0.063892	0.288681	0.710778
252	H	0.068543	0.309843	0.726963
253	C	0.176758	0.869481	0.048126
254	C	0.140169	0.843661	0.048514
255	C	0.127493	0.806665	0.048215
256	C	0.153319	0.795902	0.048535
257	C	0.190315	0.82022	0.381501
258	C	0.201087	0.856815	0.048529
259	H	0.144722	0.769486	0.045857
260	H	0.227496	0.874624	0.04572
261	H	0.12235	0.852258	0.045824
262	C	0.187936	0.906055	0.04199
263	C	0.215718	0.809051	0.375353
264	C	0.090917	0.781254	0.042123
265	O	0.249675	0.834297	0.032667
266	O	0.16269	0.914766	0.032632
267	O	0.0822	0.747289	0.032805
268	C	0.320464	0.628295	0.958364
269	C	0.356845	0.654725	0.958048
270	C	0.368739	0.69157	0.958304
271	C	0.3423	0.701513	0.958048
272	C	0.305453	0.676564	0.291639
273	C	0.29551	0.640183	0.958065
274	H	0.350347	0.727807	0.960675
275	H	0.269214	0.621941	0.960712
276	H	0.375092	0.646681	0.960722
277	C	0.310099	0.591859	0.963971
278	C	0.279381	0.686926	0.297264
279	C	0.405171	0.717647	0.963921
280	O	0.245614	0.661202	0.973255
281	O	0.335822	0.583817	0.973302
282	O	0.413207	0.751411	0.973255
283	C	0.266257	0.73439	0.312829
284	N	0.239267	0.714308	0.008041
285	C	0.219384	0.725217	0.030598
286	C	0.227366	0.760852	0.024951
287	N	0.254205	0.780816	0.329521
288	C	0.274121	0.769982	0.306908
289	C	0.299868	0.793829	0.277972
290	C	0.192737	0.700982	0.058115
291	O	0.318274	0.824434	0.290746
292	O	0.295681	0.790597	0.237239
293	H	0.280791	0.770653	0.223335
294	O	0.200618	0.68498	0.084995
295	O	0.161696	0.684131	0.044907
296	H	0.152715	0.691021	0.023215
297	N	0.285979	0.721074	0.294563
298	H	0.307291	0.737867	0.278863
299	N	0.208295	0.7746	0.044005
300	H	0.187143	0.758091	0.060208
301	C	0.262639	0.531268	0.312852
302	N	0.282709	0.524346	0.008067
303	C	0.271785	0.993549	0.030618
304	C	0.236136	0.965914	0.024992
305	N	0.216192	0.972796	0.329538
306	C	0.22705	0.503542	0.306913
307	C	0.203156	0.505406	0.277999
308	C	0.296009	0.991123	0.058139
309	O	0.17259	0.993482	0.290719
310	O	0.206675	0.504593	0.237269
311	H	0.226669	0.509626	0.223505
312	O	0.312002	0.514992	0.085038
313	O	0.312865	0.976942	0.044923
314	H	0.305983	0.961081	0.023222
315	N	0.275952	0.564309	0.2946
316	H	0.259155	0.568827	0.278908
317	N	0.222387	0.933082	0.044006
318	H	0.238888	0.928429	0.06021
319	C	0.465767	0.730791	0.31281
320	N	0.472657	0.757754	0.008059
321	C	0.003432	0.777615	0.030656
322	C	0.031072	0.769605	0.025062
323	N	0.024215	0.742795	0.329593
324	C	0.493492	0.722918	0.306918
325	C	0.49166	0.697202	0.278003
326	C	0.005832	0.804242	0.0582
327	O	0.004042	0.678833	0.290234
328	O	0.492209	0.7013	0.237237
329	H	0.48701	0.716134	0.223461
330	O	0.481941	0.796335	0.085078
331	O	0.020004	0.835285	0.045013
332	H	0.03588	0.844285	0.023329
333	N	0.432722	0.711052	0.294572
334	H	0.428206	0.689736	0.278886
335	N	0.063893	0.788683	0.044111
336	H	0.068542	0.809842	0.060298
337	C	0.176758	0.869481	0.381458
338	C	0.140169	0.843661	0.381847
339	C	0.127493	0.806665	0.381548
340	C	0.153319	0.795902	0.381867
341	C	0.190315	0.82022	0.714835
342	C	0.201087	0.856815	0.381861
343	H	0.144722	0.769486	0.37919
344	H	0.227496	0.874624	0.379054
345	H	0.12235	0.852258	0.379157
346	C	0.187936	0.906055	0.375323
347	C	0.215718	0.809051	0.708687
348	C	0.090917	0.781254	0.375456
349	O	0.249675	0.834297	0.365999
350	O	0.16269	0.914766	0.365965
351	O	0.0822	0.747289	0.366138
352	C	0.320464	0.628295	0.291699
353	C	0.356845	0.654725	0.291384
354	C	0.368739	0.69157	0.291638
355	C	0.3423	0.701513	0.291382
356	C	0.305453	0.676564	0.624971
357	C	0.29551	0.640183	0.291399
358	H	0.350347	0.727807	0.294009
359	H	0.269214	0.621941	0.294048
360	H	0.375092	0.646681	0.294056
361	C	0.310099	0.591859	0.297305
362	C	0.279381	0.686926	0.630597
363	C	0.405171	0.717647	0.297256
364	O	0.245614	0.661202	0.306588
365	O	0.335822	0.583817	0.306637
366	O	0.413207	0.751411	0.306588
367	C	0.266257	0.73439	0.64616
368	N	0.239267	0.714308	0.341374
369	C	0.219384	0.725217	0.36393
370	C	0.227366	0.760852	0.358284
371	N	0.254205	0.780816	0.662853
372	C	0.274121	0.769982	0.640241
373	C	0.299868	0.793829	0.611304
374	C	0.192737	0.700982	0.391448
375	O	0.318274	0.824434	0.62408
376	O	0.295681	0.790597	0.570571
377	H	0.280791	0.770653	0.556668
378	O	0.200618	0.68498	0.41833
379	O	0.161696	0.684131	0.378239
380	H	0.152715	0.691021	0.356548
381	N	0.285979	0.721074	0.627897
382	H	0.307291	0.737867	0.612195
383	N	0.208295	0.7746	0.377338
384	H	0.187143	0.758091	0.393543
385	C	0.262639	0.531268	0.646187
386	N	0.282709	0.524346	0.341401
387	C	0.271785	0.993549	0.36395
388	C	0.236136	0.965914	0.358327
389	N	0.216192	0.972796	0.66287
390	C	0.22705	0.503542	0.640247
391	C	0.203156	0.505406	0.61133
392	C	0.296009	0.991123	0.391471
393	O	0.17259	0.993482	0.624053
394	O	0.206675	0.504593	0.570601
395	H	0.226669	0.509626	0.556838
396	O	0.312002	0.514992	0.41837
397	O	0.312865	0.976942	0.378256
398	H	0.305983	0.961081	0.356555
399	N	0.275952	0.564309	0.627934
400	H	0.259155	0.568827	0.612241
401	N	0.222387	0.933082	0.377338
402	H	0.238888	0.928429	0.393543
403	C	0.465767	0.730791	0.646143
404	N	0.472657	0.757754	0.341391
405	C	0.003432	0.777615	0.36399
406	C	0.031072	0.769605	0.358397
407	N	0.024215	0.742795	0.662926
408	C	0.493492	0.722918	0.640251
409	C	0.49166	0.697202	0.611337
410	C	0.005832	0.804242	0.391534
411	O	0.004042	0.678833	0.623567
412	O	0.492209	0.7013	0.570571
413	H	0.48701	0.716134	0.556794
414	O	0.481941	0.796335	0.41841
415	O	0.020004	0.835285	0.378346
416	H	0.03588	0.844285	0.356661
417	N	0.432722	0.711052	0.627904
418	H	0.428206	0.689736	0.612218
419	N	0.063893	0.788683	0.377445
420	H	0.068542	0.809842	0.393632
421	C	0.176758	0.869481	0.714792
422	C	0.140169	0.843661	0.715181
423	C	0.127493	0.806665	0.714882
424	C	0.153319	0.795902	0.715201
425	C	0.190315	0.82022	0.04817
426	C	0.201087	0.856815	0.715194
427	H	0.144722	0.769486	0.712524
428	H	0.227496	0.874624	0.712384
429	H	0.12235	0.852258	0.712491
430	C	0.187936	0.906055	0.708657
431	C	0.215718	0.809051	0.04202
432	C	0.090917	0.781254	0.70879
433	O	0.249675	0.834297	0.699332
434	O	0.16269	0.914766	0.699299
435	O	0.0822	0.747289	0.699472
436	C	0.320464	0.628295	0.625034
437	C	0.356845	0.654725	0.624718
438	C	0.368739	0.69157	0.624971
439	C	0.3423	0.701513	0.624715
440	C	0.305453	0.676564	0.958304
441	C	0.29551	0.640183	0.624731
442	H	0.350347	0.727807	0.627342
443	H	0.269214	0.621941	0.627382
444	H	0.375092	0.646681	0.627388
445	C	0.310099	0.591859	0.630637
446	C	0.279381	0.686926	0.963931
447	C	0.405171	0.717647	0.630591
448	O	0.245614	0.661202	0.639922
449	O	0.335822	0.583817	0.639971
450	O	0.413207	0.751411	0.639922
451	C	0.266257	0.73439	0.979494
452	N	0.239267	0.714308	0.674708
453	C	0.219384	0.725217	0.697264
454	C	0.227366	0.760852	0.691618
455	N	0.254205	0.780816	0.996187
456	C	0.274121	0.769982	0.973574
457	C	0.299868	0.793829	0.944637
458	C	0.192737	0.700982	0.724781
459	O	0.318274	0.824434	0.95741
460	O	0.295681	0.790597	0.903905
461	H	0.280791	0.770653	0.890002
462	O	0.200618	0.68498	0.75166
463	O	0.161696	0.684131	0.711573
464	H	0.152715	0.691021	0.689882
465	N	0.285979	0.721074	0.961231
466	H	0.307291	0.737867	0.945528
467	N	0.208295	0.7746	0.710672
468	H	0.187143	0.758091	0.726873
469	C	0.262639	0.531268	0.979517
470	N	0.282709	0.524346	0.674731
471	C	0.271785	0.993549	0.697284
472	C	0.236136	0.965914	0.691657
473	N	0.216192	0.972796	0.996204
474	C	0.22705	0.503542	0.973578
475	C	0.203156	0.505406	0.944664
476	C	0.296009	0.991123	0.724805
477	O	0.17259	0.993482	0.957387
478	O	0.206675	0.504593	0.903935
479	H	0.226669	0.509626	0.890171
480	O	0.312002	0.514992	0.751703
481	O	0.312865	0.976942	0.71159
482	H	0.305983	0.961081	0.689888
483	N	0.275952	0.564309	0.961264
484	H	0.259155	0.568827	0.945575
485	N	0.222387	0.933082	0.710672
486	H	0.238888	0.928429	0.726876
487	C	0.465767	0.730791	0.979477
488	N	0.472657	0.757754	0.674725
489	C	0.003432	0.777615	0.697321
490	C	0.031072	0.769605	0.691727
491	N	0.024215	0.742795	0.99626
492	C	0.493492	0.722918	0.973584
493	C	0.49166	0.697202	0.94467
494	C	0.005832	0.804242	0.724864
495	O	0.004042	0.678833	0.956901
496	O	0.492209	0.7013	0.903902
497	H	0.48701	0.716134	0.890128
498	O	0.481941	0.796335	0.751743
499	O	0.020004	0.835285	0.711679
500	H	0.03588	0.844285	0.689995
501	N	0.432722	0.711052	0.961237
502	H	0.428206	0.689736	0.945552
503	N	0.063893	0.788683	0.710778
504	H	0.068542	0.809842	0.726963
505	C	0.676757	0.369479	0.048126
506	C	0.640168	0.343659	0.048514
507	C	0.627493	0.306666	0.048215
508	C	0.653319	0.295903	0.048535
509	C	0.690314	0.32022	0.381505
510	C	0.701089	0.356816	0.048529
511	H	0.644722	0.269486	0.045857
512	H	0.727495	0.374622	0.04572
513	H	0.622351	0.352259	0.045824
514	C	0.687936	0.406056	0.04199
515	C	0.715719	0.309052	0.375353
516	C	0.590917	0.281255	0.042123
517	O	0.749675	0.334298	0.032667
518	O	0.662691	0.414766	0.032632
519	O	0.582201	0.24729	0.032805
520	C	0.820463	0.128295	0.958364
521	C	0.856845	0.154725	0.958048
522	C	0.868738	0.191571	0.958304
523	C	0.842299	0.201512	0.958048
524	C	0.805454	0.176565	0.291639
525	C	0.79551	0.140184	0.958065
526	H	0.850346	0.227808	0.960675
527	H	0.769214	0.121941	0.960712
528	H	0.875092	0.146681	0.960722
529	C	0.810099	0.091858	0.963971
530	C	0.779381	0.186926	0.297264
531	C	0.905171	0.217648	0.963921
532	O	0.745616	0.161202	0.973255
533	O	0.835822	0.083817	0.973302
534	O	0.913208	0.251411	0.973255
535	C	0.766257	0.234389	0.312829
536	N	0.739268	0.214309	0.008041
537	C	0.719384	0.225217	0.030598
538	C	0.727366	0.260852	0.024951
539	N	0.754206	0.280817	0.329521
540	C	0.77412	0.26998	0.306908
541	C	0.799869	0.29383	0.277972
542	C	0.692738	0.200982	0.058115
543	O	0.818274	0.324435	0.290746
544	O	0.795681	0.290597	0.237239
545	H	0.780792	0.270654	0.223335
546	O	0.700618	0.18498	0.084995
547	O	0.661697	0.184132	0.044907
548	H	0.652715	0.19102	0.023215
549	N	0.78598	0.221073	0.294563
550	H	0.807289	0.237866	0.278863
551	N	0.708296	0.274598	0.044005
552	H	0.687142	0.258091	0.060208
553	C	0.762638	0.031268	0.312852
554	N	0.782711	0.024347	0.008067
555	C	0.771786	0.49355	0.030618
556	C	0.736137	0.465915	0.024993
557	N	0.716191	0.472794	0.329538
558	C	0.727049	0.003542	0.306913
559	C	0.703157	0.005406	0.277999
560	C	0.796009	0.491124	0.05814
561	O	0.672591	0.493483	0.290719
562	O	0.706675	0.004595	0.237269
563	H	0.726668	0.009625	0.223505
564	O	0.812002	0.014994	0.085038
565	O	0.812865	0.476943	0.044923
566	H	0.805981	0.461079	0.023222
567	N	0.775952	0.064309	0.2946
568	H	0.759157	0.068828	0.278908
569	N	0.722387	0.433083	0.044006
570	H	0.738888	0.42843	0.06021
571	C	0.965768	0.23079	0.31281
572	N	0.972657	0.257754	0.008059
573	C	0.503432	0.277613	0.030656
574	C	0.531072	0.269606	0.025062
575	N	0.524216	0.242796	0.329593
576	C	0.993493	0.22292	0.306918
577	C	0.991661	0.197203	0.278003
578	C	0.505831	0.30424	0.0582
579	O	0.504042	0.178834	0.290234
580	O	0.992209	0.201301	0.237237
581	H	0.987012	0.216136	0.223461
582	O	0.981943	0.296336	0.085078
583	O	0.520005	0.335285	0.045013
584	H	0.53588	0.344286	0.023329
585	N	0.932722	0.211052	0.294572
586	H	0.928206	0.189736	0.278886
587	N	0.563892	0.288681	0.044111
588	H	0.568542	0.309843	0.060298
589	C	0.676757	0.369479	0.381458
590	C	0.640168	0.343659	0.381847
591	C	0.627493	0.306666	0.381548
592	C	0.653319	0.295903	0.381867
593	C	0.690314	0.32022	0.714835
594	C	0.701089	0.356816	0.381861
595	H	0.644722	0.269486	0.37919
596	H	0.727495	0.374622	0.379054
597	H	0.622351	0.352259	0.379157
598	C	0.687936	0.406056	0.375323
599	C	0.715719	0.309052	0.708687
600	C	0.590917	0.281255	0.375456
601	O	0.749675	0.334298	0.365999
602	O	0.662691	0.414766	0.365965
603	O	0.582201	0.24729	0.366138
604	C	0.820463	0.128295	0.291699
605	C	0.856845	0.154725	0.291384
606	C	0.868738	0.191571	0.291638
607	C	0.842299	0.201512	0.291382
608	C	0.805454	0.176565	0.624971
609	C	0.79551	0.140184	0.291399
610	H	0.850346	0.227808	0.294009
611	H	0.769214	0.121941	0.294048
612	H	0.875092	0.146681	0.294056
613	C	0.810099	0.091858	0.297305
614	C	0.779381	0.186926	0.630597
615	C	0.905171	0.217648	0.297256
616	O	0.745616	0.161202	0.306588
617	O	0.835822	0.083817	0.306637
618	O	0.913208	0.251411	0.306588
619	C	0.766257	0.234389	0.64616
620	N	0.739268	0.214309	0.341374
621	C	0.719384	0.225217	0.36393
622	C	0.727366	0.260852	0.358284
623	N	0.754206	0.280817	0.662853
624	C	0.77412	0.26998	0.640241
625	C	0.799869	0.29383	0.611304
626	C	0.692738	0.200982	0.391448
627	O	0.818274	0.324435	0.62408
628	O	0.795681	0.290597	0.570571
629	H	0.780792	0.270654	0.556668
630	O	0.700618	0.18498	0.41833
631	O	0.661697	0.184132	0.378239
632	H	0.652715	0.19102	0.356548
633	N	0.78598	0.221073	0.627897
634	H	0.807289	0.237866	0.612195
635	N	0.708296	0.274598	0.377338
636	H	0.687142	0.258091	0.393543
637	C	0.762638	0.031268	0.646187
638	N	0.782711	0.024347	0.341401
639	C	0.771786	0.49355	0.36395
640	C	0.736137	0.465915	0.358327
641	N	0.716191	0.472794	0.66287
642	C	0.727049	0.003542	0.640247
643	C	0.703157	0.005406	0.61133
644	C	0.796009	0.491124	0.391471
645	O	0.672591	0.493483	0.624053
646	O	0.706675	0.004595	0.570601
647	H	0.726668	0.009625	0.556838
648	O	0.812002	0.014994	0.41837
649	O	0.812865	0.476943	0.378256
650	H	0.805981	0.461079	0.356555
651	N	0.775952	0.064309	0.627934
652	H	0.759157	0.068828	0.612241
653	N	0.722387	0.433083	0.377338
654	H	0.738888	0.42843	0.393543
655	C	0.965768	0.23079	0.646143
656	N	0.972657	0.257754	0.341391
657	C	0.503432	0.277613	0.36399
658	C	0.531072	0.269606	0.358397
659	N	0.524216	0.242796	0.662926
660	C	0.993493	0.22292	0.640251
661	C	0.991661	0.197203	0.611337
662	C	0.505831	0.30424	0.391534
663	O	0.504042	0.178834	0.623567
664	O	0.992209	0.201301	0.570568
665	H	0.987012	0.216136	0.556794
666	O	0.981943	0.296336	0.41841
667	O	0.520005	0.335285	0.378346
668	H	0.53588	0.344286	0.356661
669	N	0.932722	0.211052	0.627904
670	H	0.928206	0.189736	0.612218
671	N	0.563892	0.288681	0.377445
672	H	0.568542	0.309843	0.393632
673	C	0.676757	0.369479	0.714792
674	C	0.640168	0.343659	0.715181
675	C	0.627493	0.306666	0.714882
676	C	0.653319	0.295903	0.715201
677	C	0.690314	0.32022	0.04817
678	C	0.701089	0.356816	0.715194
679	H	0.644722	0.269486	0.712524
680	H	0.727495	0.374622	0.712384
681	H	0.622351	0.352259	0.712491
682	C	0.687936	0.406056	0.708657
683	C	0.715719	0.309052	0.04202
684	C	0.590917	0.281255	0.70879
685	O	0.749675	0.334298	0.699332
686	O	0.662691	0.414766	0.699299
687	O	0.582201	0.24729	0.699472
688	C	0.820463	0.128295	0.625031
689	C	0.856845	0.154725	0.624718
690	C	0.868738	0.191571	0.624971
691	C	0.842299	0.201512	0.624715
692	C	0.805454	0.176565	0.958304
693	C	0.79551	0.140184	0.624731
694	H	0.850346	0.227808	0.627342
695	H	0.769214	0.121941	0.627382
696	H	0.875092	0.146681	0.627388
697	C	0.810099	0.091858	0.630637
698	C	0.779381	0.186926	0.963931
699	C	0.905171	0.217648	0.630591
700	O	0.745616	0.161202	0.639922
701	O	0.835822	0.083817	0.639971
702	O	0.913208	0.251411	0.639922
703	C	0.766257	0.234389	0.979494
704	N	0.739268	0.214309	0.674708
705	C	0.719384	0.225217	0.697264
706	C	0.727366	0.260852	0.691618
707	N	0.754206	0.280817	0.996187
708	C	0.77412	0.26998	0.973574
709	C	0.799869	0.29383	0.944637
710	C	0.692738	0.200982	0.724781
711	O	0.818274	0.324435	0.95741
712	O	0.795681	0.290597	0.903905
713	H	0.780792	0.270654	0.890002
714	O	0.700618	0.18498	0.75166
715	O	0.661697	0.184132	0.711573
716	H	0.652715	0.19102	0.689882
717	N	0.78598	0.221073	0.961231
718	H	0.807289	0.237866	0.945528
719	N	0.708296	0.274598	0.710672
720	H	0.687142	0.258091	0.726873
721	C	0.762638	0.031268	0.979517
722	N	0.782711	0.024347	0.674731
723	C	0.771786	0.49355	0.697284
724	C	0.736137	0.465915	0.691657
725	N	0.716191	0.472794	0.996204
726	C	0.727049	0.003542	0.973578
727	C	0.703157	0.005406	0.944664
728	C	0.796009	0.491124	0.724805
729	O	0.672591	0.493483	0.957387
730	O	0.706675	0.004595	0.903935
731	H	0.726668	0.009625	0.890171
732	O	0.812002	0.014994	0.751703
733	O	0.812865	0.476943	0.71159
734	H	0.805981	0.461079	0.689888
735	N	0.775952	0.064309	0.961264
736	H	0.759157	0.068828	0.945575
737	N	0.722387	0.433083	0.710672
738	H	0.738888	0.42843	0.726876
739	C	0.965768	0.23079	0.979477
740	N	0.972657	0.257754	0.674725
741	C	0.503432	0.277613	0.697321
742	C	0.531072	0.269606	0.691727
743	N	0.524216	0.242796	0.99626
744	C	0.993493	0.22292	0.973584
745	C	0.991661	0.197203	0.94467
746	C	0.505831	0.30424	0.724864
747	O	0.504042	0.178834	0.956901
748	O	0.992209	0.201301	0.903902
749	H	0.987012	0.216136	0.890128
750	O	0.981943	0.296336	0.751743
751	O	0.520005	0.335285	0.711679
752	H	0.53588	0.344286	0.689995
753	N	0.932722	0.211052	0.961237
754	H	0.928206	0.189736	0.945552
755	N	0.563892	0.288681	0.710778
756	H	0.568542	0.309843	0.726963
757	C	0.676759	0.869481	0.048126
758	C	0.640169	0.843661	0.048514
759	C	0.627492	0.806665	0.048215
760	C	0.65332	0.795902	0.048535
761	C	0.690315	0.82022	0.381501
762	C	0.701087	0.856815	0.048529
763	H	0.64472	0.769486	0.045857
764	H	0.727495	0.874624	0.04572
765	H	0.622351	0.852258	0.045824
766	C	0.687937	0.906055	0.04199
767	C	0.715717	0.809051	0.375353
768	C	0.590916	0.781254	0.042123
769	O	0.749676	0.834297	0.032667
770	O	0.66269	0.914766	0.032632
771	O	0.582199	0.747289	0.032805
772	C	0.820465	0.628295	0.958364
773	C	0.856844	0.654725	0.958048
774	C	0.868739	0.69157	0.958304
775	C	0.8423	0.701513	0.958048
776	C	0.805452	0.676564	0.291639
777	C	0.795509	0.640183	0.958065
778	H	0.850347	0.727807	0.960675
779	H	0.769213	0.621941	0.960712
780	H	0.875093	0.646681	0.960722
781	C	0.810098	0.591859	0.963971
782	C	0.779379	0.686926	0.297264
783	C	0.90517	0.717647	0.963921
784	O	0.745614	0.661202	0.973255
785	O	0.835821	0.583817	0.973302
786	O	0.913207	0.751411	0.973255
787	C	0.766256	0.73439	0.312829
788	N	0.739266	0.714308	0.008041
789	C	0.719383	0.725217	0.030598
790	C	0.727365	0.760852	0.024951
791	N	0.754205	0.780816	0.329521
792	C	0.77412	0.769982	0.306908
793	C	0.799867	0.793829	0.277972
794	C	0.692737	0.700982	0.058115
795	O	0.818273	0.824434	0.290746
796	O	0.795681	0.790597	0.237239
797	H	0.780791	0.770653	0.223335
798	O	0.700616	0.68498	0.084995
799	O	0.661695	0.684131	0.044907
800	H	0.652714	0.691021	0.023215
801	N	0.785979	0.721074	0.294563
802	H	0.807291	0.737867	0.278863
803	N	0.708295	0.7746	0.044005
804	H	0.687144	0.758091	0.060208
805	C	0.762639	0.531268	0.312852
806	N	0.782709	0.524346	0.008067
807	C	0.771784	0.993549	0.030618
808	C	0.736138	0.965914	0.024992
809	N	0.716192	0.972796	0.329538
810	C	0.727051	0.503542	0.306913
811	C	0.703156	0.505406	0.277999
812	C	0.796007	0.991123	0.058139
813	O	0.67259	0.993482	0.290719
814	O	0.706675	0.504593	0.237269
815	H	0.72667	0.509626	0.223505
816	O	0.812003	0.514992	0.085038
817	O	0.812866	0.976942	0.044923
818	H	0.805983	0.961081	0.023222
819	N	0.775951	0.564309	0.2946
820	H	0.759155	0.568827	0.278908
821	N	0.722386	0.933082	0.044006
822	H	0.738889	0.928429	0.06021
823	C	0.965767	0.730791	0.31281
824	N	0.972656	0.757754	0.008059
825	C	0.503433	0.777615	0.030656
826	C	0.531071	0.769605	0.025062
827	N	0.524216	0.742795	0.329593
828	C	0.993491	0.722918	0.306918
829	C	0.991659	0.697202	0.278003
830	C	0.505831	0.804242	0.0582
831	O	0.504041	0.678833	0.290234
832	O	0.99221	0.7013	0.237237
833	H	0.98701	0.716134	0.223461
834	O	0.981941	0.796335	0.085078
835	O	0.520005	0.835285	0.045013
836	H	0.535881	0.844285	0.023329
837	N	0.932721	0.711052	0.294572
838	H	0.928205	0.689736	0.278886
839	N	0.563892	0.788683	0.044111
840	H	0.568542	0.809842	0.060298
841	C	0.676759	0.869481	0.381458
842	C	0.640169	0.843661	0.381847
843	C	0.627492	0.806665	0.381548
844	C	0.65332	0.795902	0.381867
845	C	0.690315	0.82022	0.714835
846	C	0.701087	0.856815	0.381861
847	H	0.64472	0.769486	0.37919
848	H	0.727495	0.874624	0.379054
849	H	0.622351	0.852258	0.379157
850	C	0.687937	0.906055	0.375323
851	C	0.715717	0.809051	0.708687
852	C	0.590916	0.781254	0.375456
853	O	0.749676	0.834297	0.365999
854	O	0.66269	0.914766	0.365965
855	O	0.582199	0.747289	0.366138
856	C	0.820465	0.628295	0.291699
857	C	0.856844	0.654725	0.291384
858	C	0.868739	0.69157	0.291638
859	C	0.8423	0.701513	0.291382
860	C	0.805452	0.676564	0.624971
861	C	0.795509	0.640183	0.291399
862	H	0.850347	0.727807	0.294009
863	H	0.769213	0.621941	0.294048
864	H	0.875093	0.646681	0.294056
865	C	0.810098	0.591859	0.297305
866	C	0.779379	0.686926	0.630597
867	C	0.90517	0.717647	0.297256
868	O	0.745614	0.661202	0.306588
869	O	0.835821	0.583817	0.306637
870	O	0.913207	0.751411	0.306588
871	C	0.766256	0.73439	0.64616
872	N	0.739266	0.714308	0.341374
873	C	0.719383	0.725217	0.36393
874	C	0.727365	0.760852	0.358284
875	N	0.754205	0.780816	0.662853
876	C	0.77412	0.769982	0.640241
877	C	0.799867	0.793829	0.611304
878	C	0.692737	0.700982	0.391448
879	O	0.818273	0.824434	0.62408
880	O	0.795681	0.790597	0.570571
881	H	0.780791	0.770653	0.556668
882	O	0.700616	0.68498	0.41833
883	O	0.661695	0.684131	0.378239
884	H	0.652714	0.691021	0.356548
885	N	0.785979	0.721074	0.627897
886	H	0.807291	0.737867	0.612195
887	N	0.708295	0.7746	0.377338
888	H	0.687144	0.758091	0.393543
889	C	0.762639	0.531268	0.646187
890	N	0.782709	0.524346	0.341401
891	C	0.771784	0.993549	0.36395
892	C	0.736138	0.965914	0.358327
893	N	0.716192	0.972796	0.66287
894	C	0.727051	0.503542	0.640247
895	C	0.703156	0.505406	0.61133
896	C	0.796007	0.991123	0.391471
897	O	0.67259	0.993482	0.624053
898	O	0.706675	0.504593	0.570601
899	H	0.72667	0.509626	0.556838
900	O	0.812003	0.514992	0.41837
901	O	0.812866	0.976942	0.378256
902	H	0.805983	0.961081	0.356555
903	N	0.775951	0.564309	0.627934
904	H	0.759155	0.568827	0.612241
905	N	0.722386	0.933082	0.377338
906	H	0.738889	0.928429	0.393543
907	C	0.965767	0.730791	0.646143
908	N	0.972656	0.757754	0.341391
909	C	0.503433	0.777615	0.36399
910	C	0.531071	0.769605	0.358397
911	N	0.524216	0.742795	0.662926
912	C	0.993491	0.722918	0.640251
913	C	0.991659	0.697202	0.611337
914	C	0.505831	0.804242	0.391534
915	O	0.504041	0.678833	0.623567
916	O	0.99221	0.7013	0.570571
917	H	0.98701	0.716134	0.556794
918	O	0.981941	0.796335	0.41841
919	O	0.520005	0.835285	0.378346
920	H	0.535881	0.844285	0.356661
921	N	0.932721	0.711052	0.627904
922	H	0.928205	0.689736	0.612218
923	N	0.563892	0.788683	0.377445
924	H	0.568542	0.809842	0.393632
925	C	0.676759	0.869481	0.714792
926	C	0.640169	0.843661	0.715181
927	C	0.627492	0.806665	0.714882
928	C	0.65332	0.795902	0.715201
929	C	0.690315	0.82022	0.04817
930	C	0.701087	0.856815	0.715194
931	H	0.64472	0.769486	0.712524
932	H	0.727495	0.874624	0.712384
933	H	0.622351	0.852258	0.712491
934	C	0.687937	0.906055	0.708657
935	C	0.715717	0.809051	0.04202
936	C	0.590916	0.781254	0.70879
937	O	0.749676	0.834297	0.699332
938	O	0.66269	0.914766	0.699299
939	O	0.582199	0.747289	0.699472
940	C	0.820465	0.628295	0.625034
941	C	0.856844	0.654725	0.624718
942	C	0.868739	0.69157	0.624971
943	C	0.8423	0.701513	0.624715
944	C	0.805452	0.676564	0.958304
945	C	0.795509	0.640183	0.624731
946	H	0.850347	0.727807	0.627342
947	H	0.769213	0.621941	0.627382
948	H	0.875093	0.646681	0.627388
949	C	0.810098	0.591859	0.630637
950	C	0.779379	0.686926	0.963931
951	C	0.90517	0.717647	0.630591
952	O	0.745614	0.661202	0.639922
953	O	0.835821	0.583817	0.639971
954	O	0.913207	0.751411	0.639922
955	C	0.766256	0.73439	0.979494
956	N	0.739266	0.714308	0.674708
957	C	0.719383	0.725217	0.697264
958	C	0.727365	0.760852	0.691618
959	N	0.754205	0.780816	0.996187
960	C	0.77412	0.769982	0.973574
961	C	0.799867	0.793829	0.944637
962	C	0.692737	0.700982	0.724781
963	O	0.818273	0.824434	0.95741
964	O	0.795681	0.790597	0.903905
965	H	0.780791	0.770653	0.890002
966	O	0.700616	0.68498	0.75166
967	O	0.661695	0.684131	0.711573
968	H	0.652714	0.691021	0.689882
969	N	0.785979	0.721074	0.961231
970	H	0.807291	0.737867	0.945528
971	N	0.708295	0.7746	0.710672
972	H	0.687144	0.758091	0.726873
973	C	0.762639	0.531268	0.979517
974	N	0.782709	0.524346	0.674731
975	C	0.771784	0.993549	0.697284
976	C	0.736138	0.965914	0.691657
977	N	0.716192	0.972796	0.996204
978	C	0.727051	0.503542	0.973578
979	C	0.703156	0.505406	0.944664
980	C	0.796007	0.991123	0.724805
981	O	0.67259	0.993482	0.957387
982	O	0.706675	0.504593	0.903935
983	H	0.72667	0.509626	0.890171
984	O	0.812003	0.514992	0.751703
985	O	0.812866	0.976942	0.71159
986	H	0.805983	0.961081	0.689888
987	N	0.775951	0.564309	0.961264
988	H	0.759155	0.568827	0.945575
989	N	0.722386	0.933082	0.710672
990	H	0.738889	0.928429	0.726876
991	C	0.965767	0.730791	0.979477
992	N	0.972656	0.757754	0.674725
993	C	0.503433	0.777615	0.697321
994	C	0.531071	0.769605	0.691727
995	N	0.524216	0.742795	0.99626
996	C	0.993491	0.722918	0.973584
997	C	0.991659	0.697202	0.94467
998	C	0.505831	0.804242	0.724864
999	O	0.504041	0.678833	0.956901
1000	O	0.99221	0.7013	0.903902
1001	H	0.98701	0.716134	0.890128
1002	O	0.981941	0.796335	0.751743
1003	O	0.520005	0.835285	0.711679
1004	H	0.535881	0.844285	0.689995
1005	N	0.932721	0.711052	0.961237
1006	H	0.928205	0.689736	0.945552
1007	N	0.563892	0.788683	0.710778
1008	H	0.568542	0.809842	0.726963
