data_C504H288N144O72_2018-02-15_10:32:49
#******************************************
#
# CIF file created by Zeo++
# Zeo++ is an open source package to
# analyze microporous materials
#
#*******************************************

_cell_length_a		43.8029   
_cell_length_b		43.803   
_cell_length_c		30.1364   
_cell_angle_alpha		90   
_cell_angle_beta		90   
_cell_angle_gamma		120   

_symmetry_space_group_name_H-M		'P1'
_symmetry_Int_Tables_number		1
_symmetry_cell_setting		Monoclinic

loop_
_symmetry_equiv_pos_as_xyz
'+x,+y,+z'

loop_
_atom_site_label
_atom_site_type_symbol
_atom_site_fract_x
_atom_site_fract_y
_atom_site_fract_z
1	C	0.180315	0.368783	0.980146
2	C	0.143118	0.347684	0.979629
3	C	0.125534	0.310422	0.980037
4	C	0.146645	0.294331	0.979642
5	C	0.183906	0.31401	0.313483
6	C	0.200005	0.351214	0.979672
7	H	0.134473	0.267548	0.982326
8	H	0.226777	0.365815	0.982512
9	H	0.128506	0.359857	0.982293
10	C	0.196669	0.405718	0.986926
11	C	0.204503	0.297682	0.320319
12	C	0.088593	0.289823	0.986743
13	O	0.239767	0.318663	0.993466
14	O	0.175698	0.420011	0.993426
15	O	0.074298	0.254556	0.99321
16	C	0.323931	0.129215	0.997634
17	C	0.358476	0.158468	0.996704
18	C	0.365077	0.193564	0.997584
19	C	0.335823	0.198856	0.996721
20	C	0.300726	0.17036	0.330966
21	C	0.295435	0.135815	0.996761
22	H	0.340218	0.224101	0.996422
23	H	0.270188	0.114964	0.996499
24	H	0.379327	0.154072	0.996419
25	C	0.318094	0.094434	0.000542
26	C	0.271763	0.17617	0.333895
27	C	0.399861	0.222509	0.000455
28	O	0.239349	0.149986	0.98817
29	O	0.344308	0.088221	0.988236
30	O	0.406066	0.254935	0.988157
31	C	0.208859	0.246338	0.337937
32	C	0.229314	0.256135	0.044232
33	C	0.251116	0.241145	0.053083
34	C	0.250567	0.216005	0.02261
35	N	0.227238	0.205883	0.32182
36	N	0.20769	0.21981	0.313451
37	C	0.270834	0.25033	0.093158
38	C	0.268741	0.273171	0.124101
39	C	0.246441	0.286884	0.116047
40	C	0.226728	0.278211	0.076692
41	H	0.285686	0.239272	0.101845
42	H	0.282427	0.278741	0.153291
43	H	0.243943	0.302522	0.13928
44	H	0.209421	0.287248	0.073076
45	N	0.191303	0.2621	0.321137
46	H	0.172147	0.248213	0.300505
47	N	0.274111	0.204288	0.023066
48	H	0.295074	0.217639	0.041005
49	C	0.247972	0.461369	0.337877
50	C	0.238226	0.472003	0.044231
51	C	0.253216	0.008793	0.053112
52	C	0.278326	0.033404	0.022628
53	N	0.288379	0.020211	0.321753
54	N	0.274452	0.486742	0.31335
55	C	0.244064	0.01931	0.093226
56	C	0.221268	0.99436	0.124187
57	C	0.207545	0.458351	0.116097
58	C	0.216199	0.447329	0.076713
59	H	0.255122	0.04522	0.101915
60	H	0.21568	0.002468	0.153372
61	H	0.19189	0.440201	0.139307
62	H	0.207109	0.420981	0.07303
63	N	0.232272	0.428046	0.321117
64	H	0.245991	0.422769	0.300226
65	N	0.290016	0.068659	0.023092
66	H	0.276666	0.076259	0.041055
67	C	0.032936	0.285455	0.337698
68	C	0.022314	0.265086	0.044062
69	C	0.485527	0.243284	0.05296
70	C	0.460908	0.243777	0.022488
71	N	0.474088	0.267024	0.32161
72	N	0.007556	0.286565	0.313192
73	C	0.475024	0.223649	0.093098
74	C	0.499981	0.225822	0.124059
75	C	0.035989	0.248092	0.115938
76	C	0.047001	0.267727	0.076523
77	H	0.449117	0.208772	0.101785
78	H	0.491887	0.212122	0.153241
79	H	0.054146	0.250598	0.139144
80	H	0.073343	0.285018	0.072851
81	N	0.06626	0.303094	0.320947
82	H	0.071539	0.322098	0.300067
83	N	0.425654	0.220212	0.022974
84	H	0.418063	0.199264	0.040935
85	C	0.180315	0.368783	0.313481
86	C	0.143118	0.347684	0.312961
87	C	0.125534	0.310422	0.313369
88	C	0.146645	0.294331	0.312974
89	C	0.183906	0.31401	0.646815
90	C	0.200005	0.351214	0.313003
91	H	0.134473	0.267548	0.31566
92	H	0.226777	0.365815	0.315845
93	H	0.128506	0.359857	0.315626
94	C	0.196669	0.405718	0.320258
95	C	0.204503	0.297682	0.653651
96	C	0.088593	0.289823	0.320077
97	O	0.239767	0.318663	0.3268
98	O	0.175698	0.420011	0.326758
99	O	0.074298	0.254556	0.326543
100	C	0.323931	0.129215	0.330966
101	C	0.358476	0.158468	0.330037
102	C	0.365077	0.193564	0.330916
103	C	0.335823	0.198856	0.330054
104	C	0.300726	0.17036	0.664299
105	C	0.295435	0.135815	0.330093
106	H	0.340218	0.224101	0.329754
107	H	0.270188	0.114964	0.329831
108	H	0.379327	0.154072	0.329751
109	C	0.318094	0.094434	0.333875
110	C	0.271763	0.17617	0.667229
111	C	0.399861	0.222509	0.333789
112	O	0.239349	0.149986	0.321504
113	O	0.344308	0.088221	0.32157
114	O	0.406066	0.254935	0.321491
115	C	0.208859	0.246338	0.671271
116	C	0.229314	0.256135	0.377566
117	C	0.251116	0.241145	0.386416
118	C	0.250567	0.216005	0.355945
119	N	0.227238	0.205883	0.655154
120	N	0.20769	0.21981	0.646786
121	C	0.270834	0.25033	0.426491
122	C	0.268741	0.273171	0.457433
123	C	0.246441	0.286884	0.44938
124	C	0.226728	0.278211	0.410026
125	H	0.285686	0.239272	0.435178
126	H	0.282427	0.278741	0.486624
127	H	0.243943	0.302522	0.472614
128	H	0.209421	0.287248	0.406409
129	N	0.191303	0.2621	0.654471
130	H	0.172147	0.248213	0.633838
131	N	0.274111	0.204288	0.356399
132	H	0.295074	0.217639	0.374338
133	C	0.247972	0.461369	0.671211
134	C	0.238226	0.472003	0.377563
135	C	0.253216	0.008793	0.386446
136	C	0.278326	0.033404	0.355961
137	N	0.288379	0.020211	0.655088
138	N	0.274452	0.486742	0.646683
139	C	0.244064	0.01931	0.42656
140	C	0.221268	0.99436	0.45752
141	C	0.207545	0.458351	0.44943
142	C	0.216199	0.447329	0.410045
143	H	0.255122	0.04522	0.435247
144	H	0.21568	0.002468	0.486707
145	H	0.19189	0.440201	0.472641
146	H	0.207109	0.420981	0.406362
147	N	0.232272	0.428046	0.654451
148	H	0.245991	0.422769	0.633559
149	N	0.290016	0.068659	0.356426
150	H	0.276666	0.076259	0.374388
151	C	0.032936	0.285455	0.671032
152	C	0.022314	0.265086	0.377394
153	C	0.485527	0.243284	0.386293
154	C	0.460908	0.243777	0.355822
155	N	0.474088	0.267024	0.654945
156	N	0.007556	0.286565	0.646527
157	C	0.475024	0.223649	0.426431
158	C	0.499981	0.225822	0.457393
159	C	0.035989	0.248092	0.44927
160	C	0.047001	0.267727	0.409856
161	H	0.449117	0.208772	0.435118
162	H	0.491887	0.212122	0.486574
163	H	0.054146	0.250598	0.472478
164	H	0.073343	0.285018	0.406186
165	N	0.06626	0.303094	0.654281
166	H	0.071539	0.322098	0.6334
167	N	0.425654	0.220212	0.356306
168	H	0.418063	0.199264	0.374268
169	C	0.180315	0.368783	0.646815
170	C	0.143118	0.347684	0.646294
171	C	0.125534	0.310422	0.646703
172	C	0.146645	0.294331	0.646308
173	C	0.183906	0.31401	0.98015
174	C	0.200005	0.351214	0.646338
175	H	0.134473	0.267548	0.648992
176	H	0.226777	0.365815	0.649178
177	H	0.128506	0.359857	0.648959
178	C	0.196669	0.405718	0.653591
179	C	0.204503	0.297682	0.986985
180	C	0.088593	0.289823	0.653412
181	O	0.239767	0.318663	0.660135
182	O	0.175698	0.420011	0.660092
183	O	0.074298	0.254556	0.659876
184	C	0.323931	0.129215	0.664299
185	C	0.358476	0.158468	0.66337
186	C	0.365077	0.193564	0.66425
187	C	0.335823	0.198856	0.663387
188	C	0.300726	0.17036	0.997634
189	C	0.295435	0.135815	0.663427
190	H	0.340218	0.224101	0.663088
191	H	0.270188	0.114964	0.663164
192	H	0.379327	0.154072	0.663085
193	C	0.318094	0.094434	0.667209
194	C	0.271763	0.17617	0.000561
195	C	0.399861	0.222509	0.667123
196	O	0.239349	0.149986	0.654839
197	O	0.344308	0.088221	0.654902
198	O	0.406066	0.254935	0.654826
199	C	0.208859	0.246338	0.004604
200	C	0.229314	0.256135	0.710897
201	C	0.251116	0.241145	0.71975
202	C	0.250567	0.216005	0.689276
203	N	0.227238	0.205883	0.988488
204	N	0.20769	0.21981	0.980117
205	C	0.270834	0.25033	0.759825
206	C	0.268741	0.273171	0.790768
207	C	0.246441	0.286884	0.782714
208	C	0.226728	0.278211	0.74336
209	H	0.285686	0.239272	0.768512
210	H	0.282427	0.278741	0.819958
211	H	0.243943	0.302522	0.805945
212	H	0.209421	0.287248	0.739743
213	N	0.191303	0.2621	0.987805
214	H	0.172147	0.248213	0.967172
215	N	0.274111	0.204288	0.689734
216	H	0.295074	0.217639	0.707672
217	C	0.247972	0.461369	0.004544
218	C	0.238226	0.472003	0.710897
219	C	0.253216	0.008793	0.71978
220	C	0.278326	0.033404	0.689296
221	N	0.288379	0.020211	0.988419
222	N	0.274452	0.486742	0.980017
223	C	0.244064	0.01931	0.759895
224	C	0.221268	0.99436	0.790854
225	C	0.207545	0.458351	0.782764
226	C	0.216199	0.447329	0.74338
227	H	0.255122	0.04522	0.768582
228	H	0.21568	0.002468	0.820038
229	H	0.19189	0.440201	0.805975
230	H	0.207109	0.420981	0.739696
231	N	0.232272	0.428046	0.987785
232	H	0.245991	0.422769	0.966893
233	N	0.290016	0.068659	0.68976
234	H	0.276666	0.076259	0.707722
235	C	0.032936	0.285455	0.004366
236	C	0.022314	0.265086	0.710728
237	C	0.485527	0.243284	0.719628
238	C	0.460908	0.243777	0.689156
239	N	0.474088	0.267024	0.988276
240	N	0.007556	0.286565	0.979858
241	C	0.475024	0.223649	0.759765
242	C	0.499981	0.225822	0.790724
243	C	0.035989	0.248092	0.782605
244	C	0.047001	0.267727	0.743191
245	H	0.449117	0.208772	0.768452
246	H	0.491887	0.212122	0.819908
247	H	0.054146	0.250598	0.805812
248	H	0.073343	0.285018	0.739517
249	N	0.06626	0.303094	0.987616
250	H	0.071539	0.322098	0.966734
251	N	0.425654	0.220212	0.689641
252	H	0.418063	0.199264	0.707602
253	C	0.180315	0.868782	0.980146
254	C	0.143119	0.847683	0.979629
255	C	0.125534	0.810421	0.980037
256	C	0.146646	0.79433	0.979642
257	C	0.183906	0.814009	0.313483
258	C	0.200005	0.851213	0.979672
259	H	0.134474	0.767547	0.982326
260	H	0.226777	0.865814	0.982512
261	H	0.128506	0.859857	0.982293
262	C	0.196669	0.905717	0.986926
263	C	0.204503	0.797681	0.320319
264	C	0.088592	0.789823	0.986743
265	O	0.239767	0.818662	0.993466
266	O	0.175699	0.92001	0.993426
267	O	0.074299	0.754556	0.99321
268	C	0.323931	0.629214	0.997634
269	C	0.358477	0.658467	0.996704
270	C	0.365079	0.693564	0.997584
271	C	0.335823	0.698855	0.996721
272	C	0.300726	0.670359	0.330966
273	C	0.295435	0.635815	0.996761
274	H	0.340218	0.724101	0.996422
275	H	0.270188	0.614963	0.996499
276	H	0.379328	0.654073	0.996419
277	C	0.318093	0.594433	0.000542
278	C	0.271762	0.676169	0.333895
279	C	0.399863	0.722509	0.000455
280	O	0.23935	0.649987	0.98817
281	O	0.344308	0.58822	0.988236
282	O	0.406066	0.754933	0.988157
283	C	0.208859	0.746337	0.337937
284	C	0.229315	0.756136	0.044231
285	C	0.251116	0.741144	0.053083
286	C	0.250567	0.716003	0.02261
287	N	0.227239	0.705883	0.32182
288	N	0.20769	0.71981	0.313451
289	C	0.270834	0.750331	0.093158
290	C	0.268741	0.77317	0.124101
291	C	0.246441	0.786883	0.116047
292	C	0.22673	0.778213	0.076692
293	H	0.285687	0.739272	0.101845
294	H	0.282427	0.77874	0.153291
295	H	0.243945	0.802523	0.13928
296	H	0.209421	0.787247	0.073076
297	N	0.191303	0.762098	0.321137
298	H	0.172147	0.748211	0.300505
299	N	0.274112	0.704288	0.023066
300	H	0.295073	0.717638	0.041005
301	C	0.247972	0.961368	0.337877
302	C	0.238227	0.972003	0.044231
303	C	0.253216	0.508793	0.053112
304	C	0.278326	0.533404	0.022628
305	N	0.28838	0.52021	0.321753
306	N	0.274452	0.986741	0.31335
307	C	0.244065	0.519309	0.093226
308	C	0.221268	0.49436	0.124187
309	C	0.207546	0.95835	0.116097
310	C	0.216198	0.947328	0.076713
311	H	0.255121	0.545219	0.101915
312	H	0.21568	0.502467	0.153372
313	H	0.191889	0.9402	0.139307
314	H	0.207108	0.92098	0.07303
315	N	0.232273	0.928048	0.321117
316	H	0.245991	0.922768	0.300226
317	N	0.290016	0.568657	0.023092
318	H	0.276668	0.57626	0.041055
319	C	0.032935	0.785455	0.337698
320	C	0.022314	0.765085	0.044062
321	C	0.485528	0.743284	0.05296
322	C	0.460907	0.743777	0.022488
323	N	0.47409	0.767025	0.32161
324	N	0.007556	0.786567	0.313192
325	C	0.475025	0.723648	0.093098
326	C	0.499981	0.72582	0.124059
327	C	0.035988	0.74809	0.115938
328	C	0.047001	0.767727	0.076523
329	H	0.449117	0.708772	0.101785
330	H	0.491888	0.71212	0.153241
331	H	0.054145	0.750597	0.139144
332	H	0.073343	0.785017	0.072851
333	N	0.066263	0.803095	0.320947
334	H	0.07154	0.822097	0.300067
335	N	0.425653	0.72021	0.022974
336	H	0.418064	0.699264	0.040935
337	C	0.180315	0.868782	0.313481
338	C	0.143119	0.847683	0.312961
339	C	0.125534	0.810421	0.313369
340	C	0.146646	0.79433	0.312974
341	C	0.183906	0.814009	0.646815
342	C	0.200005	0.851213	0.313003
343	H	0.134474	0.767547	0.31566
344	H	0.226777	0.865814	0.315845
345	H	0.128506	0.859857	0.315626
346	C	0.196669	0.905717	0.320258
347	C	0.204503	0.797681	0.653651
348	C	0.088592	0.789823	0.320077
349	O	0.239767	0.818662	0.3268
350	O	0.175699	0.92001	0.326758
351	O	0.074299	0.754556	0.326543
352	C	0.323931	0.629214	0.330966
353	C	0.358477	0.658467	0.330037
354	C	0.365079	0.693564	0.330916
355	C	0.335823	0.698855	0.330054
356	C	0.300726	0.670359	0.664299
357	C	0.295435	0.635815	0.330093
358	H	0.340218	0.724101	0.329754
359	H	0.270188	0.614963	0.329831
360	H	0.379328	0.654073	0.329751
361	C	0.318093	0.594433	0.333875
362	C	0.271762	0.676169	0.667229
363	C	0.399863	0.722509	0.333789
364	O	0.23935	0.649987	0.321504
365	O	0.344308	0.58822	0.32157
366	O	0.406066	0.754933	0.321491
367	C	0.208859	0.746337	0.671271
368	C	0.229315	0.756136	0.377566
369	C	0.251116	0.741144	0.386416
370	C	0.250567	0.716003	0.355945
371	N	0.227239	0.705883	0.655154
372	N	0.20769	0.71981	0.646786
373	C	0.270834	0.750331	0.426491
374	C	0.268741	0.77317	0.457433
375	C	0.246441	0.786883	0.44938
376	C	0.22673	0.778213	0.410026
377	H	0.285687	0.739272	0.435178
378	H	0.282427	0.77874	0.486624
379	H	0.243945	0.802523	0.472614
380	H	0.209421	0.787247	0.406409
381	N	0.191303	0.762098	0.654471
382	H	0.172147	0.748211	0.633838
383	N	0.274112	0.704288	0.356399
384	H	0.295073	0.717638	0.374338
385	C	0.247972	0.961368	0.671211
386	C	0.238227	0.972003	0.377563
387	C	0.253216	0.508793	0.386446
388	C	0.278326	0.533404	0.355961
389	N	0.28838	0.52021	0.655088
390	N	0.274452	0.986741	0.646683
391	C	0.244065	0.519309	0.42656
392	C	0.221268	0.49436	0.45752
393	C	0.207546	0.95835	0.44943
394	C	0.216198	0.947328	0.410045
395	H	0.255121	0.545219	0.435247
396	H	0.21568	0.502467	0.486707
397	H	0.191889	0.9402	0.472641
398	H	0.207108	0.92098	0.406362
399	N	0.232273	0.928048	0.654451
400	H	0.245991	0.922768	0.633559
401	N	0.290016	0.568657	0.356426
402	H	0.276668	0.57626	0.374388
403	C	0.032935	0.785455	0.671032
404	C	0.022314	0.765085	0.377394
405	C	0.485528	0.743284	0.386293
406	C	0.460907	0.743777	0.355822
407	N	0.47409	0.767025	0.654945
408	N	0.007556	0.786567	0.646527
409	C	0.475025	0.723648	0.426431
410	C	0.499981	0.72582	0.457393
411	C	0.035988	0.74809	0.44927
412	C	0.047001	0.767727	0.409856
413	H	0.449117	0.708772	0.435118
414	H	0.491888	0.71212	0.486574
415	H	0.054145	0.750597	0.472478
416	H	0.073343	0.785017	0.406186
417	N	0.066263	0.803095	0.654281
418	H	0.07154	0.822097	0.6334
419	N	0.425653	0.72021	0.356306
420	H	0.418064	0.699264	0.374268
421	C	0.180315	0.868782	0.646815
422	C	0.143119	0.847683	0.646294
423	C	0.125534	0.810421	0.646703
424	C	0.146646	0.79433	0.646308
425	C	0.183906	0.814009	0.98015
426	C	0.200005	0.851213	0.646338
427	H	0.134474	0.767547	0.648992
428	H	0.226777	0.865814	0.649178
429	H	0.128506	0.859857	0.648959
430	C	0.196669	0.905717	0.653591
431	C	0.204503	0.797681	0.986985
432	C	0.088592	0.789823	0.653412
433	O	0.239767	0.818662	0.660135
434	O	0.175699	0.92001	0.660092
435	O	0.074299	0.754556	0.659876
436	C	0.323931	0.629214	0.664299
437	C	0.358477	0.658467	0.66337
438	C	0.365079	0.693564	0.66425
439	C	0.335823	0.698855	0.663387
440	C	0.300726	0.670359	0.997634
441	C	0.295435	0.635815	0.663427
442	H	0.340218	0.724101	0.663088
443	H	0.270188	0.614963	0.663164
444	H	0.379328	0.654073	0.663085
445	C	0.318093	0.594433	0.667209
446	C	0.271762	0.676169	0.000561
447	C	0.399863	0.722509	0.667123
448	O	0.23935	0.649987	0.654839
449	O	0.344308	0.58822	0.654902
450	O	0.406066	0.754933	0.654826
451	C	0.208859	0.746337	0.004604
452	C	0.229315	0.756136	0.710897
453	C	0.251116	0.741144	0.71975
454	C	0.250567	0.716003	0.689276
455	N	0.227239	0.705883	0.988488
456	N	0.20769	0.71981	0.980117
457	C	0.270834	0.750331	0.759825
458	C	0.268741	0.77317	0.790768
459	C	0.246441	0.786883	0.782714
460	C	0.22673	0.778213	0.74336
461	H	0.285687	0.739272	0.768512
462	H	0.282427	0.77874	0.819958
463	H	0.243945	0.802523	0.805945
464	H	0.209421	0.787247	0.739743
465	N	0.191303	0.762098	0.987805
466	H	0.172147	0.748211	0.967172
467	N	0.274112	0.704288	0.689734
468	H	0.295073	0.717638	0.707672
469	C	0.247972	0.961368	0.004544
470	C	0.238227	0.972003	0.710897
471	C	0.253216	0.508793	0.71978
472	C	0.278326	0.533404	0.689296
473	N	0.28838	0.52021	0.988419
474	N	0.274452	0.986741	0.980017
475	C	0.244065	0.519309	0.759895
476	C	0.221268	0.49436	0.790854
477	C	0.207546	0.95835	0.782764
478	C	0.216198	0.947328	0.74338
479	H	0.255121	0.545219	0.768582
480	H	0.21568	0.502467	0.820038
481	H	0.191889	0.9402	0.805975
482	H	0.207108	0.92098	0.739696
483	N	0.232273	0.928048	0.987785
484	H	0.245991	0.922768	0.966893
485	N	0.290016	0.568657	0.68976
486	H	0.276668	0.57626	0.707722
487	C	0.032935	0.785455	0.004366
488	C	0.022314	0.765085	0.710728
489	C	0.485528	0.743284	0.719628
490	C	0.460907	0.743777	0.689156
491	N	0.47409	0.767025	0.988276
492	N	0.007556	0.786567	0.979858
493	C	0.475025	0.723648	0.759765
494	C	0.499981	0.72582	0.790724
495	C	0.035988	0.74809	0.782605
496	C	0.047001	0.767727	0.743191
497	H	0.449117	0.708772	0.768452
498	H	0.491888	0.71212	0.819908
499	H	0.054145	0.750597	0.805812
500	H	0.073343	0.785017	0.739517
501	N	0.066263	0.803095	0.987616
502	H	0.07154	0.822097	0.966734
503	N	0.425653	0.72021	0.689641
504	H	0.418064	0.699264	0.707602
505	C	0.680316	0.368783	0.980146
506	C	0.643117	0.347684	0.979629
507	C	0.625534	0.310422	0.980037
508	C	0.646647	0.294331	0.979642
509	C	0.683907	0.31401	0.313483
510	C	0.700004	0.351214	0.979672
511	H	0.634474	0.267548	0.982326
512	H	0.726778	0.365815	0.982512
513	H	0.628507	0.359857	0.982293
514	C	0.696669	0.405718	0.986926
515	C	0.704503	0.297682	0.320319
516	C	0.588593	0.289823	0.986743
517	O	0.739766	0.318663	0.993466
518	O	0.675699	0.420011	0.993426
519	O	0.574299	0.254556	0.99321
520	C	0.823932	0.129215	0.997634
521	C	0.858477	0.158468	0.996704
522	C	0.865079	0.193564	0.997584
523	C	0.835822	0.198856	0.996721
524	C	0.800726	0.17036	0.330966
525	C	0.795435	0.135815	0.996761
526	H	0.840217	0.224101	0.996422
527	H	0.770188	0.114964	0.996499
528	H	0.879328	0.154072	0.996419
529	C	0.818093	0.094434	0.000542
530	C	0.771764	0.17617	0.333895
531	C	0.899862	0.222509	0.000455
532	O	0.739349	0.149986	0.98817
533	O	0.844309	0.088221	0.988236
534	O	0.906067	0.254935	0.988157
535	C	0.708859	0.246338	0.337937
536	C	0.729313	0.256135	0.044232
537	C	0.751116	0.241145	0.053083
538	C	0.750567	0.216005	0.02261
539	N	0.727238	0.205883	0.32182
540	N	0.70769	0.21981	0.313451
541	C	0.770833	0.25033	0.093158
542	C	0.76874	0.273171	0.124101
543	C	0.746441	0.286884	0.116047
544	C	0.726729	0.278211	0.076692
545	H	0.785686	0.239272	0.101845
546	H	0.782427	0.278741	0.153291
547	H	0.743943	0.302522	0.13928
548	H	0.70942	0.287248	0.073076
549	N	0.691303	0.2621	0.321137
550	H	0.672148	0.248213	0.300505
551	N	0.774111	0.204288	0.023066
552	H	0.795074	0.217639	0.041005
553	C	0.747973	0.461369	0.337877
554	C	0.738225	0.472003	0.044231
555	C	0.753217	0.008793	0.053112
556	C	0.778325	0.033404	0.022628
557	N	0.788381	0.020211	0.321753
558	N	0.774453	0.486742	0.31335
559	C	0.744065	0.01931	0.093226
560	C	0.721268	0.99436	0.124187
561	C	0.707546	0.458351	0.116097
562	C	0.716199	0.447329	0.076713
563	H	0.755121	0.04522	0.101915
564	H	0.71568	0.002468	0.153372
565	H	0.69189	0.440201	0.139307
566	H	0.707109	0.420981	0.07303
567	N	0.732272	0.428046	0.321117
568	H	0.745991	0.422769	0.300226
569	N	0.790017	0.068659	0.023092
570	H	0.776668	0.076259	0.041055
571	C	0.532935	0.285455	0.337698
572	C	0.522314	0.265086	0.044062
573	C	0.985528	0.243284	0.05296
574	C	0.960907	0.243777	0.022488
575	N	0.974089	0.267024	0.32161
576	N	0.507556	0.286565	0.313192
577	C	0.975025	0.223649	0.093098
578	C	0.999982	0.225822	0.124059
579	C	0.535989	0.248092	0.115938
580	C	0.547001	0.267727	0.076523
581	H	0.949115	0.208772	0.101785
582	H	0.991888	0.212122	0.153241
583	H	0.554146	0.250598	0.139144
584	H	0.573344	0.285018	0.072851
585	N	0.566259	0.303094	0.320947
586	H	0.57154	0.322098	0.300067
587	N	0.925653	0.220212	0.022974
588	H	0.918064	0.199264	0.040935
589	C	0.680316	0.368783	0.313481
590	C	0.643117	0.347684	0.312961
591	C	0.625534	0.310422	0.313369
592	C	0.646647	0.294331	0.312974
593	C	0.683907	0.31401	0.646815
594	C	0.700004	0.351214	0.313003
595	H	0.634474	0.267548	0.31566
596	H	0.726778	0.365815	0.315845
597	H	0.628507	0.359857	0.315626
598	C	0.696669	0.405718	0.320258
599	C	0.704503	0.297682	0.653651
600	C	0.588593	0.289823	0.320077
601	O	0.739766	0.318663	0.3268
602	O	0.675699	0.420011	0.326758
603	O	0.574299	0.254556	0.326543
604	C	0.823932	0.129215	0.330966
605	C	0.858477	0.158468	0.330037
606	C	0.865079	0.193564	0.330916
607	C	0.835822	0.198856	0.330054
608	C	0.800726	0.17036	0.664299
609	C	0.795435	0.135815	0.330093
610	H	0.840217	0.224101	0.329754
611	H	0.770188	0.114964	0.329831
612	H	0.879328	0.154072	0.329751
613	C	0.818093	0.094434	0.333875
614	C	0.771764	0.17617	0.667229
615	C	0.899862	0.222509	0.333789
616	O	0.739349	0.149986	0.321504
617	O	0.844309	0.088221	0.32157
618	O	0.906067	0.254935	0.321491
619	C	0.708859	0.246338	0.671271
620	C	0.729313	0.256135	0.377566
621	C	0.751116	0.241145	0.386416
622	C	0.750567	0.216005	0.355945
623	N	0.727238	0.205883	0.655154
624	N	0.70769	0.21981	0.646786
625	C	0.770833	0.25033	0.426491
626	C	0.76874	0.273171	0.457433
627	C	0.746441	0.286884	0.44938
628	C	0.726729	0.278211	0.410026
629	H	0.785686	0.239272	0.435178
630	H	0.782427	0.278741	0.486624
631	H	0.743943	0.302522	0.472614
632	H	0.70942	0.287248	0.406409
633	N	0.691303	0.2621	0.654471
634	H	0.672148	0.248213	0.633838
635	N	0.774111	0.204288	0.356399
636	H	0.795074	0.217639	0.374338
637	C	0.747973	0.461369	0.671211
638	C	0.738225	0.472003	0.377563
639	C	0.753217	0.008793	0.386446
640	C	0.778325	0.033404	0.355961
641	N	0.788381	0.020211	0.655088
642	N	0.774453	0.486742	0.646683
643	C	0.744065	0.01931	0.42656
644	C	0.721268	0.99436	0.45752
645	C	0.707546	0.458351	0.44943
646	C	0.716199	0.447329	0.410045
647	H	0.755121	0.04522	0.435247
648	H	0.71568	0.002468	0.486707
649	H	0.69189	0.440201	0.472641
650	H	0.707109	0.420981	0.406362
651	N	0.732272	0.428046	0.654451
652	H	0.745991	0.422769	0.633559
653	N	0.790017	0.068659	0.356426
654	H	0.776668	0.076259	0.374388
655	C	0.532935	0.285455	0.671032
656	C	0.522314	0.265086	0.377394
657	C	0.985528	0.243284	0.386293
658	C	0.960907	0.243777	0.355822
659	N	0.974089	0.267024	0.654945
660	N	0.507556	0.286565	0.646527
661	C	0.975025	0.223649	0.426431
662	C	0.999982	0.225822	0.457393
663	C	0.535989	0.248092	0.44927
664	C	0.547001	0.267727	0.409856
665	H	0.949115	0.208772	0.435118
666	H	0.991888	0.212122	0.486574
667	H	0.554146	0.250598	0.472478
668	H	0.573344	0.285018	0.406186
669	N	0.566259	0.303094	0.654281
670	H	0.57154	0.322098	0.6334
671	N	0.925653	0.220212	0.356306
672	H	0.918064	0.199264	0.374268
673	C	0.680316	0.368783	0.646815
674	C	0.643117	0.347684	0.646294
675	C	0.625534	0.310422	0.646703
676	C	0.646647	0.294331	0.646308
677	C	0.683907	0.31401	0.98015
678	C	0.700004	0.351214	0.646338
679	H	0.634474	0.267548	0.648992
680	H	0.726778	0.365815	0.649178
681	H	0.628507	0.359857	0.648959
682	C	0.696669	0.405718	0.653591
683	C	0.704503	0.297682	0.986985
684	C	0.588593	0.289823	0.653412
685	O	0.739766	0.318663	0.660135
686	O	0.675699	0.420011	0.660092
687	O	0.574299	0.254556	0.659876
688	C	0.823932	0.129215	0.664299
689	C	0.858477	0.158468	0.66337
690	C	0.865079	0.193564	0.66425
691	C	0.835822	0.198856	0.663387
692	C	0.800726	0.17036	0.997634
693	C	0.795435	0.135815	0.663427
694	H	0.840217	0.224101	0.663088
695	H	0.770188	0.114964	0.663164
696	H	0.879328	0.154072	0.663085
697	C	0.818093	0.094434	0.667209
698	C	0.771764	0.17617	0.000561
699	C	0.899862	0.222509	0.667123
700	O	0.739349	0.149986	0.654839
701	O	0.844309	0.088221	0.654902
702	O	0.906067	0.254935	0.654826
703	C	0.708859	0.246338	0.004604
704	C	0.729313	0.256135	0.710897
705	C	0.751116	0.241145	0.71975
706	C	0.750567	0.216005	0.689276
707	N	0.727238	0.205883	0.988488
708	N	0.70769	0.21981	0.980117
709	C	0.770833	0.25033	0.759825
710	C	0.76874	0.273171	0.790768
711	C	0.746441	0.286884	0.782714
712	C	0.726729	0.278211	0.74336
713	H	0.785686	0.239272	0.768512
714	H	0.782427	0.278741	0.819958
715	H	0.743943	0.302522	0.805945
716	H	0.70942	0.287248	0.739743
717	N	0.691303	0.2621	0.987805
718	H	0.672148	0.248213	0.967172
719	N	0.774111	0.204288	0.689734
720	H	0.795074	0.217639	0.707672
721	C	0.747973	0.461369	0.004544
722	C	0.738225	0.472003	0.710897
723	C	0.753217	0.008793	0.71978
724	C	0.778325	0.033404	0.689296
725	N	0.788381	0.020211	0.988419
726	N	0.774453	0.486742	0.980017
727	C	0.744065	0.01931	0.759895
728	C	0.721268	0.99436	0.790854
729	C	0.707546	0.458351	0.782764
730	C	0.716199	0.447329	0.74338
731	H	0.755121	0.04522	0.768582
732	H	0.71568	0.002468	0.820038
733	H	0.69189	0.440201	0.805975
734	H	0.707109	0.420981	0.739696
735	N	0.732272	0.428046	0.987785
736	H	0.745991	0.422769	0.966893
737	N	0.790017	0.068659	0.68976
738	H	0.776668	0.076259	0.707722
739	C	0.532935	0.285455	0.004366
740	C	0.522314	0.265086	0.710728
741	C	0.985528	0.243284	0.719628
742	C	0.960907	0.243777	0.689156
743	N	0.974089	0.267024	0.988276
744	N	0.507556	0.286565	0.979858
745	C	0.975025	0.223649	0.759765
746	C	0.999982	0.225822	0.790724
747	C	0.535989	0.248092	0.782605
748	C	0.547001	0.267727	0.743191
749	H	0.949115	0.208772	0.768452
750	H	0.991888	0.212122	0.819908
751	H	0.554146	0.250598	0.805812
752	H	0.573344	0.285018	0.739517
753	N	0.566259	0.303094	0.987616
754	H	0.57154	0.322098	0.966734
755	N	0.925653	0.220212	0.689641
756	H	0.918064	0.199264	0.707602
757	C	0.680314	0.868782	0.980146
758	C	0.643118	0.847683	0.979629
759	C	0.625535	0.810421	0.980037
760	C	0.646645	0.79433	0.979642
761	C	0.683905	0.814009	0.313483
762	C	0.700005	0.851213	0.979672
763	H	0.634473	0.767547	0.982326
764	H	0.726777	0.865814	0.982512
765	H	0.628506	0.859857	0.982293
766	C	0.69667	0.905717	0.986926
767	C	0.704504	0.797681	0.320319
768	C	0.588593	0.789823	0.986743
769	O	0.739767	0.818662	0.993466
770	O	0.675698	0.92001	0.993426
771	O	0.574299	0.754556	0.99321
772	C	0.82393	0.629214	0.997634
773	C	0.858478	0.658467	0.996704
774	C	0.86508	0.693564	0.997584
775	C	0.835823	0.698855	0.996721
776	C	0.800725	0.670359	0.330966
777	C	0.795436	0.635815	0.996761
778	H	0.840218	0.724101	0.996422
779	H	0.770189	0.614963	0.996499
780	H	0.879327	0.654073	0.996419
781	C	0.818094	0.594433	0.000542
782	C	0.771762	0.676169	0.333895
783	C	0.899864	0.722509	0.000455
784	O	0.73935	0.649987	0.98817
785	O	0.844309	0.58822	0.988236
786	O	0.906067	0.754933	0.988157
787	C	0.708859	0.746337	0.337937
788	C	0.729315	0.756136	0.044231
789	C	0.751116	0.741144	0.053083
790	C	0.750568	0.716003	0.02261
791	N	0.727239	0.705883	0.32182
792	N	0.707691	0.71981	0.313451
793	C	0.770834	0.750331	0.093158
794	C	0.768741	0.77317	0.124101
795	C	0.746442	0.786883	0.116047
796	C	0.726729	0.778213	0.076692
797	H	0.785687	0.739272	0.101845
798	H	0.782427	0.77874	0.153291
799	H	0.743945	0.802523	0.13928
800	H	0.709421	0.787247	0.073076
801	N	0.691304	0.762098	0.321137
802	H	0.672146	0.748211	0.300505
803	N	0.774112	0.704288	0.023066
804	H	0.795074	0.717638	0.041005
805	C	0.747971	0.961368	0.337877
806	C	0.738225	0.972003	0.044231
807	C	0.753216	0.508793	0.053112
808	C	0.778326	0.533404	0.022628
809	N	0.788381	0.52021	0.321753
810	N	0.774451	0.986741	0.31335
811	C	0.744066	0.519309	0.093226
812	C	0.721268	0.49436	0.124187
813	C	0.707545	0.95835	0.116097
814	C	0.716199	0.947328	0.076713
815	H	0.755122	0.545219	0.101915
816	H	0.71568	0.502467	0.153372
817	H	0.69189	0.9402	0.139307
818	H	0.70711	0.92098	0.07303
819	N	0.732274	0.928048	0.321117
820	H	0.745992	0.922768	0.300226
821	N	0.790015	0.568657	0.023092
822	H	0.776669	0.57626	0.041055
823	C	0.532936	0.785455	0.337698
824	C	0.522314	0.765085	0.044062
825	C	0.985529	0.743284	0.05296
826	C	0.960908	0.743777	0.022488
827	N	0.974089	0.767025	0.32161
828	N	0.507558	0.786567	0.313192
829	C	0.975024	0.723648	0.093098
830	C	0.999981	0.72582	0.124059
831	C	0.535989	0.74809	0.115938
832	C	0.547001	0.767727	0.076523
833	H	0.949117	0.708772	0.101785
834	H	0.991889	0.71212	0.153241
835	H	0.554146	0.750597	0.139144
836	H	0.573343	0.785017	0.072851
837	N	0.566262	0.803095	0.320947
838	H	0.571539	0.822097	0.300067
839	N	0.925653	0.72021	0.022974
840	H	0.918065	0.699264	0.040935
841	C	0.680314	0.868782	0.313481
842	C	0.643118	0.847683	0.312961
843	C	0.625535	0.810421	0.313369
844	C	0.646645	0.79433	0.312974
845	C	0.683905	0.814009	0.646815
846	C	0.700005	0.851213	0.313003
847	H	0.634473	0.767547	0.31566
848	H	0.726777	0.865814	0.315845
849	H	0.628506	0.859857	0.315626
850	C	0.69667	0.905717	0.320258
851	C	0.704504	0.797681	0.653651
852	C	0.588593	0.789823	0.320077
853	O	0.739767	0.818662	0.3268
854	O	0.675698	0.92001	0.326758
855	O	0.574299	0.754556	0.326543
856	C	0.82393	0.629214	0.330966
857	C	0.858478	0.658467	0.330037
858	C	0.86508	0.693564	0.330916
859	C	0.835823	0.698855	0.330054
860	C	0.800725	0.670359	0.664299
861	C	0.795436	0.635815	0.330093
862	H	0.840218	0.724101	0.329754
863	H	0.770189	0.614963	0.329831
864	H	0.879327	0.654073	0.329751
865	C	0.818094	0.594433	0.333875
866	C	0.771762	0.676169	0.667229
867	C	0.899864	0.722509	0.333789
868	O	0.73935	0.649987	0.321504
869	O	0.844309	0.58822	0.32157
870	O	0.906067	0.754933	0.321491
871	C	0.708859	0.746337	0.671271
872	C	0.729315	0.756136	0.377566
873	C	0.751116	0.741144	0.386416
874	C	0.750568	0.716003	0.355945
875	N	0.727239	0.705883	0.655154
876	N	0.707691	0.71981	0.646786
877	C	0.770834	0.750331	0.426491
878	C	0.768741	0.77317	0.457433
879	C	0.746442	0.786883	0.44938
880	C	0.726729	0.778213	0.410026
881	H	0.785687	0.739272	0.435178
882	H	0.782427	0.77874	0.486624
883	H	0.743945	0.802523	0.472614
884	H	0.709421	0.787247	0.406409
885	N	0.691304	0.762098	0.654471
886	H	0.672146	0.748211	0.633838
887	N	0.774112	0.704288	0.356399
888	H	0.795074	0.717638	0.374338
889	C	0.747971	0.961368	0.671211
890	C	0.738225	0.972003	0.377563
891	C	0.753216	0.508793	0.386446
892	C	0.778326	0.533404	0.355961
893	N	0.788381	0.52021	0.655088
894	N	0.774451	0.986741	0.646683
895	C	0.744066	0.519309	0.42656
896	C	0.721268	0.49436	0.45752
897	C	0.707545	0.95835	0.44943
898	C	0.716199	0.947328	0.410045
899	H	0.755122	0.545219	0.435247
900	H	0.71568	0.502467	0.486707
901	H	0.69189	0.9402	0.472641
902	H	0.70711	0.92098	0.406362
903	N	0.732274	0.928048	0.654451
904	H	0.745992	0.922768	0.633559
905	N	0.790015	0.568657	0.356426
906	H	0.776669	0.57626	0.374388
907	C	0.532936	0.785455	0.671032
908	C	0.522314	0.765085	0.377394
909	C	0.985529	0.743284	0.386293
910	C	0.960908	0.743777	0.355822
911	N	0.974089	0.767025	0.654945
912	N	0.507558	0.786567	0.646527
913	C	0.975024	0.723648	0.426431
914	C	0.999981	0.72582	0.457393
915	C	0.535989	0.74809	0.44927
916	C	0.547001	0.767727	0.409856
917	H	0.949117	0.708772	0.435118
918	H	0.991889	0.71212	0.486574
919	H	0.554146	0.750597	0.472478
920	H	0.573343	0.785017	0.406186
921	N	0.566262	0.803095	0.654281
922	H	0.571539	0.822097	0.6334
923	N	0.925653	0.72021	0.356306
924	H	0.918065	0.699264	0.374268
925	C	0.680314	0.868782	0.646815
926	C	0.643118	0.847683	0.646294
927	C	0.625535	0.810421	0.646703
928	C	0.646645	0.79433	0.646308
929	C	0.683905	0.814009	0.98015
930	C	0.700005	0.851213	0.646338
931	H	0.634473	0.767547	0.648992
932	H	0.726777	0.865814	0.649178
933	H	0.628506	0.859857	0.648959
934	C	0.69667	0.905717	0.653591
935	C	0.704504	0.797681	0.986985
936	C	0.588593	0.789823	0.653412
937	O	0.739767	0.818662	0.660135
938	O	0.675698	0.92001	0.660092
939	O	0.574299	0.754556	0.659876
940	C	0.82393	0.629214	0.664299
941	C	0.858478	0.658467	0.66337
942	C	0.86508	0.693564	0.66425
943	C	0.835823	0.698855	0.663387
944	C	0.800725	0.670359	0.997634
945	C	0.795436	0.635815	0.663427
946	H	0.840218	0.724101	0.663088
947	H	0.770189	0.614963	0.663164
948	H	0.879327	0.654073	0.663085
949	C	0.818094	0.594433	0.667209
950	C	0.771762	0.676169	0.000561
951	C	0.899864	0.722509	0.667123
952	O	0.73935	0.649987	0.654839
953	O	0.844309	0.58822	0.654902
954	O	0.906067	0.754933	0.654826
955	C	0.708859	0.746337	0.004604
956	C	0.729315	0.756136	0.710897
957	C	0.751116	0.741144	0.71975
958	C	0.750568	0.716003	0.689276
959	N	0.727239	0.705883	0.988488
960	N	0.707691	0.71981	0.980117
961	C	0.770834	0.750331	0.759825
962	C	0.768741	0.77317	0.790768
963	C	0.746442	0.786883	0.782714
964	C	0.726729	0.778213	0.74336
965	H	0.785687	0.739272	0.768512
966	H	0.782427	0.77874	0.819958
967	H	0.743945	0.802523	0.805945
968	H	0.709421	0.787247	0.739743
969	N	0.691304	0.762098	0.987805
970	H	0.672146	0.748211	0.967172
971	N	0.774112	0.704288	0.689734
972	H	0.795074	0.717638	0.707672
973	C	0.747971	0.961368	0.004544
974	C	0.738225	0.972003	0.710897
975	C	0.753216	0.508793	0.71978
976	C	0.778326	0.533404	0.689296
977	N	0.788381	0.52021	0.988419
978	N	0.774451	0.986741	0.980017
979	C	0.744066	0.519309	0.759895
980	C	0.721268	0.49436	0.790854
981	C	0.707545	0.95835	0.782764
982	C	0.716199	0.947328	0.74338
983	H	0.755122	0.545219	0.768582
984	H	0.71568	0.502467	0.820038
985	H	0.69189	0.9402	0.805975
986	H	0.70711	0.92098	0.739696
987	N	0.732274	0.928048	0.987785
988	H	0.745992	0.922768	0.966893
989	N	0.790015	0.568657	0.68976
990	H	0.776669	0.57626	0.707722
991	C	0.532936	0.785455	0.004366
992	C	0.522314	0.765085	0.710728
993	C	0.985529	0.743284	0.719628
994	C	0.960908	0.743777	0.689156
995	N	0.974089	0.767025	0.988276
996	N	0.507558	0.786567	0.979858
997	C	0.975024	0.723648	0.759765
998	C	0.999981	0.72582	0.790724
999	C	0.535989	0.74809	0.782605
1000	C	0.547001	0.767727	0.743191
1001	H	0.949117	0.708772	0.768452
1002	H	0.991889	0.71212	0.819908
1003	H	0.554146	0.750597	0.805812
1004	H	0.573343	0.785017	0.739517
1005	N	0.566262	0.803095	0.987616
1006	H	0.571539	0.822097	0.966734
1007	N	0.925653	0.72021	0.689641
1008	H	0.918065	0.699264	0.707602
