data_C576H720N72_2018-02-15_10:34:03
#******************************************
#
# CIF file created by Zeo++
# Zeo++ is an open source package to
# analyze microporous materials
#
#*******************************************

_cell_length_a		44.0314   
_cell_length_b		44.0314   
_cell_length_c		29.997   
_cell_angle_alpha		90   
_cell_angle_beta		90   
_cell_angle_gamma		120   

_symmetry_space_group_name_H-M		'P1'
_symmetry_Int_Tables_number		1
_symmetry_cell_setting		Monoclinic

loop_
_symmetry_equiv_pos_as_xyz
'+x,+y,+z'

loop_
_atom_site_label
_atom_site_type_symbol
_atom_site_fract_x
_atom_site_fract_y
_atom_site_fract_z
1	C	0.184889	0.314387	0.039638
2	C	0.147849	0.296526	0.039854
3	C	0.1296	0.315229	0.03963
4	C	0.148778	0.352271	0.039862
5	C	0.18573	0.370518	0.039645
6	C	0.203593	0.35134	0.039882
7	H	0.135678	0.365994	0.039675
8	H	0.230417	0.364442	0.039679
9	H	0.134124	0.2697	0.039661
10	N	0.203979	0.296408	0.038731
11	H	0.195107	0.277801	0.063512
12	N	0.20371	0.407589	0.038747
13	H	0.222313	0.417321	0.063533
14	N	0.092531	0.29614	0.038724
15	H	0.082796	0.305009	0.063509
16	C	0.315343	0.18579	0.962453
17	C	0.352381	0.203569	0.962223
18	C	0.370547	0.184782	0.962453
19	C	0.351287	0.147744	0.962233
20	C	0.314334	0.129578	0.962459
21	C	0.296556	0.148838	0.962233
22	H	0.364327	0.13396	0.962409
23	H	0.269734	0.135798	0.962409
24	H	0.366164	0.230391	0.962403
25	N	0.296334	0.203853	0.963326
26	H	0.305239	0.222441	0.93852
27	N	0.296273	0.092507	0.96333
28	H	0.277679	0.082823	0.93853
29	N	0.407618	0.20379	0.963323
30	H	0.417299	0.194881	0.93852
31	C	0.22833	0.265439	0.328572
32	C	0.215658	0.229633	0.316629
33	C	0.23665	0.213858	0.325069
34	C	0.27204	0.234893	0.006771
35	C	0.28472	0.270705	0.018697
36	C	0.263719	0.286476	0.010282
37	C	0.22022	0.174743	0.320522
38	H	0.193916	0.161565	0.334907
39	H	0.234058	0.163615	0.33785
40	H	0.218599	0.167703	0.285358
41	C	0.181188	0.209603	0.292586
42	H	0.179602	0.225695	0.266002
43	H	0.159627	0.202268	0.315968
44	H	0.176939	0.185797	0.276067
45	C	0.319214	0.290743	0.042686
46	H	0.320812	0.274673	0.069288
47	H	0.323502	0.314576	0.059171
48	H	0.34075	0.298041	0.019276
49	C	0.280129	0.325585	0.014895
50	H	0.266257	0.336717	0.99766
51	H	0.306413	0.338786	0.000454
52	H	0.281789	0.332592	0.050075
53	C	0.296107	0.219627	0.007133
54	H	0.287473	0.19992	0.033524
55	H	0.323297	0.238706	0.014738
56	C	0.204248	0.280686	0.328231
57	H	0.177068	0.261604	0.320585
58	H	0.212889	0.300422	0.301874
59	C	0.234685	0.462915	0.328601
60	C	0.270486	0.486047	0.316641
61	C	0.286266	0.022816	0.325085
62	C	0.265231	0.037173	0.006777
63	C	0.229421	0.014043	0.018714
64	C	0.213651	0.477267	0.010318
65	C	0.325379	0.0455	0.320515
66	H	0.338562	0.032376	0.33488
67	H	0.336515	0.070468	0.337854
68	H	0.332406	0.050924	0.285352
69	C	0.290512	0.471611	0.29258
70	H	0.274409	0.453925	0.266004
71	H	0.297861	0.457389	0.315956
72	H	0.314306	0.491166	0.276048
73	C	0.209384	0.028503	0.042695
74	H	0.225457	0.046173	0.069301
75	H	0.185552	0.008967	0.059172
76	H	0.202094	0.042747	0.019279
77	C	0.174543	0.454575	0.014921
78	H	0.163406	0.42956	0.997693
79	H	0.161345	0.467653	0.000465
80	H	0.167529	0.449233	0.050098
81	C	0.280501	0.076506	0.00714
82	H	0.300213	0.087579	0.033529
83	H	0.261426	0.084621	0.014752
84	C	0.219439	0.423586	0.328252
85	H	0.238524	0.41549	0.32061
86	H	0.199706	0.412493	0.301889
87	C	0.037209	0.271793	0.328564
88	C	0.014078	0.284467	0.316618
89	C	0.477309	0.263475	0.325058
90	C	0.462954	0.228087	0.006764
91	C	0.486085	0.215406	0.018689
92	C	0.022858	0.236405	0.010273
93	C	0.454627	0.279907	0.320506
94	H	0.467751	0.30621	0.334887
95	H	0.429658	0.266071	0.337837
96	H	0.449208	0.281525	0.285343
97	C	0.028518	0.318934	0.292571
98	H	0.0462	0.320521	0.265989
99	H	0.042742	0.340499	0.315953
100	H	0.008965	0.323183	0.276049
101	C	0.471629	0.180912	0.042679
102	H	0.453962	0.179316	0.069286
103	H	0.491171	0.176622	0.059157
104	H	0.457386	0.159375	0.019269
105	C	0.045554	0.219993	0.014883
106	H	0.070561	0.233865	0.997643
107	H	0.032471	0.19371	0.000442
108	H	0.050904	0.218334	0.05006
109	C	0.42362	0.204022	0.00713
110	H	0.412551	0.212661	0.03352
111	H	0.415508	0.176833	0.014743
112	C	0.076539	0.295875	0.328226
113	H	0.084637	0.323057	0.320586
114	H	0.087636	0.287239	0.301865
115	C	0.184889	0.314387	0.372971
116	C	0.147849	0.296526	0.373187
117	C	0.1296	0.315229	0.372964
118	C	0.148778	0.352271	0.373194
119	C	0.18573	0.370518	0.372977
120	C	0.203593	0.35134	0.373214
121	H	0.135678	0.365994	0.373007
122	H	0.230417	0.364442	0.373014
123	H	0.134124	0.2697	0.372994
124	N	0.203979	0.296408	0.372064
125	H	0.195107	0.277801	0.396846
126	N	0.20371	0.407589	0.37208
127	H	0.222313	0.417321	0.396866
128	N	0.092531	0.29614	0.372057
129	H	0.082796	0.305009	0.396843
130	C	0.315343	0.18579	0.295786
131	C	0.352381	0.203569	0.295556
132	C	0.370547	0.184782	0.295787
133	C	0.351287	0.147744	0.295567
134	C	0.314334	0.129578	0.295791
135	C	0.296556	0.148838	0.295567
136	H	0.364327	0.13396	0.295741
137	H	0.269734	0.135798	0.295742
138	H	0.366164	0.230391	0.295736
139	N	0.296334	0.203853	0.296658
140	H	0.305239	0.222441	0.271853
141	N	0.296273	0.092507	0.296664
142	H	0.277679	0.082823	0.271862
143	N	0.407618	0.20379	0.296655
144	H	0.417299	0.194881	0.271853
145	C	0.22833	0.265439	0.661906
146	C	0.215658	0.229633	0.649962
147	C	0.23665	0.213858	0.658402
148	C	0.27204	0.234893	0.340104
149	C	0.28472	0.270705	0.352032
150	C	0.263719	0.286476	0.343614
151	C	0.22022	0.174743	0.653855
152	H	0.193916	0.161565	0.668243
153	H	0.234058	0.163615	0.671184
154	H	0.218599	0.167703	0.618692
155	C	0.181188	0.209603	0.625919
156	H	0.179602	0.225695	0.599337
157	H	0.159627	0.202268	0.649301
158	H	0.176939	0.185797	0.609401
159	C	0.319214	0.290743	0.376021
160	H	0.320812	0.274673	0.40262
161	H	0.323502	0.314576	0.392506
162	H	0.34075	0.298041	0.352609
163	C	0.280129	0.325585	0.348228
164	H	0.266257	0.336717	0.330993
165	H	0.306413	0.338786	0.333787
166	H	0.281789	0.332592	0.383408
167	C	0.296107	0.219627	0.340467
168	H	0.287473	0.19992	0.366857
169	H	0.323297	0.238706	0.348071
170	C	0.204248	0.280686	0.661566
171	H	0.177068	0.261604	0.653919
172	H	0.212889	0.300422	0.635207
173	C	0.234685	0.462915	0.661933
174	C	0.270486	0.486047	0.649975
175	C	0.286266	0.022816	0.658419
176	C	0.265231	0.037173	0.340111
177	C	0.229421	0.014043	0.352048
178	C	0.213651	0.477267	0.343651
179	C	0.325379	0.0455	0.653849
180	H	0.338562	0.032376	0.668213
181	H	0.336515	0.070468	0.671187
182	H	0.332406	0.050924	0.618685
183	C	0.290512	0.471611	0.625912
184	H	0.274409	0.453925	0.599337
185	H	0.297861	0.457389	0.649288
186	H	0.314306	0.491166	0.609381
187	C	0.209384	0.028503	0.376028
188	H	0.225457	0.046173	0.402634
189	H	0.185552	0.008967	0.392506
190	H	0.202094	0.042747	0.352612
191	C	0.174543	0.454575	0.348255
192	H	0.163406	0.42956	0.331026
193	H	0.161345	0.467653	0.3338
194	H	0.167529	0.449233	0.383432
195	C	0.280501	0.076506	0.340474
196	H	0.300213	0.087579	0.366863
197	H	0.261426	0.084621	0.348085
198	C	0.219439	0.423586	0.661586
199	H	0.238524	0.41549	0.653942
200	H	0.199706	0.412493	0.635223
201	C	0.037209	0.271793	0.661899
202	C	0.014078	0.284467	0.649952
203	C	0.477309	0.263475	0.658392
204	C	0.462954	0.228087	0.340097
205	C	0.486085	0.215406	0.352022
206	C	0.022858	0.236405	0.343608
207	C	0.454627	0.279907	0.653839
208	H	0.467751	0.30621	0.66822
209	H	0.429658	0.266071	0.67117
210	H	0.449208	0.281525	0.618678
211	C	0.028518	0.318934	0.625906
212	H	0.0462	0.320521	0.599323
213	H	0.042742	0.340499	0.649285
214	H	0.008965	0.323183	0.609381
215	C	0.471629	0.180912	0.376011
216	H	0.453962	0.179316	0.40262
217	H	0.491171	0.176622	0.392489
218	H	0.457386	0.159375	0.352602
219	C	0.045554	0.219993	0.348215
220	H	0.070561	0.233865	0.330975
221	H	0.032471	0.19371	0.333777
222	H	0.050904	0.218334	0.383392
223	C	0.42362	0.204022	0.340464
224	H	0.412551	0.212661	0.366853
225	H	0.415508	0.176833	0.348075
226	C	0.076539	0.295875	0.661559
227	H	0.084637	0.323057	0.653919
228	H	0.087636	0.287239	0.6352
229	C	0.184889	0.314387	0.706304
230	C	0.147849	0.296526	0.706521
231	C	0.1296	0.315229	0.706297
232	C	0.148778	0.352271	0.706527
233	C	0.18573	0.370518	0.706311
234	C	0.203593	0.35134	0.706547
235	H	0.135678	0.365994	0.706341
236	H	0.230417	0.364442	0.706347
237	H	0.134124	0.2697	0.706327
238	N	0.203979	0.296408	0.705397
239	H	0.195107	0.277801	0.73018
240	N	0.20371	0.407589	0.705414
241	H	0.222313	0.417321	0.7302
242	N	0.092531	0.29614	0.70539
243	H	0.082796	0.305009	0.730176
244	C	0.315343	0.18579	0.629119
245	C	0.352381	0.203569	0.628889
246	C	0.370547	0.184782	0.629119
247	C	0.351287	0.147744	0.628899
248	C	0.314334	0.129578	0.629123
249	C	0.296556	0.148838	0.628899
250	H	0.364327	0.13396	0.629073
251	H	0.269734	0.135798	0.629076
252	H	0.366164	0.230391	0.629069
253	N	0.296334	0.203853	0.62999
254	H	0.305239	0.222441	0.605187
255	N	0.296273	0.092507	0.629996
256	H	0.277679	0.082823	0.605197
257	N	0.407618	0.20379	0.62999
258	H	0.417299	0.194881	0.605187
259	C	0.22833	0.265439	0.995239
260	C	0.215658	0.229633	0.983295
261	C	0.23665	0.213858	0.991736
262	C	0.27204	0.234893	0.673437
263	C	0.28472	0.270705	0.685365
264	C	0.263719	0.286476	0.676948
265	C	0.22022	0.174743	0.987189
266	H	0.193916	0.161565	0.001575
267	H	0.234058	0.163615	0.004517
268	H	0.218599	0.167703	0.952025
269	C	0.181188	0.209603	0.959252
270	H	0.179602	0.225695	0.93267
271	H	0.159627	0.202268	0.982635
272	H	0.176939	0.185797	0.942734
273	C	0.319214	0.290743	0.709354
274	H	0.320812	0.274673	0.735953
275	H	0.323502	0.314576	0.725839
276	H	0.34075	0.298041	0.685942
277	C	0.280129	0.325585	0.681561
278	H	0.266257	0.336717	0.664326
279	H	0.306413	0.338786	0.66712
280	H	0.281789	0.332592	0.716742
281	C	0.296107	0.219627	0.673801
282	H	0.287473	0.19992	0.70019
283	H	0.323297	0.238706	0.681405
284	C	0.204248	0.280686	0.994899
285	H	0.177068	0.261604	0.987252
286	H	0.212889	0.300422	0.96854
287	C	0.234685	0.462915	0.995266
288	C	0.270486	0.486047	0.983308
289	C	0.286266	0.022816	0.991752
290	C	0.265231	0.037173	0.673444
291	C	0.229421	0.014043	0.685382
292	C	0.213651	0.477267	0.676984
293	C	0.325379	0.0455	0.987182
294	H	0.338562	0.032376	0.001547
295	H	0.336515	0.070468	0.004522
296	H	0.332406	0.050924	0.952018
297	C	0.290512	0.471611	0.959246
298	H	0.274409	0.453925	0.93267
299	H	0.297861	0.457389	0.982621
300	H	0.314306	0.491166	0.942714
301	C	0.209384	0.028503	0.709361
302	H	0.225457	0.046173	0.735967
303	H	0.185552	0.008967	0.725839
304	H	0.202094	0.042747	0.685945
305	C	0.174543	0.454575	0.681588
306	H	0.163406	0.42956	0.66436
307	H	0.161345	0.467653	0.667133
308	H	0.167529	0.449233	0.716765
309	C	0.280501	0.076506	0.673807
310	H	0.300213	0.087579	0.700197
311	H	0.261426	0.084621	0.681418
312	C	0.219439	0.423586	0.994919
313	H	0.238524	0.41549	0.987275
314	H	0.199706	0.412493	0.968557
315	C	0.037209	0.271793	0.995233
316	C	0.014078	0.284467	0.983285
317	C	0.477309	0.263475	0.991726
318	C	0.462954	0.228087	0.673431
319	C	0.486085	0.215406	0.685355
320	C	0.022858	0.236405	0.676941
321	C	0.454627	0.279907	0.987172
322	H	0.467751	0.30621	0.001554
323	H	0.429658	0.266071	0.004504
324	H	0.449208	0.281525	0.952012
325	C	0.028518	0.318934	0.959239
326	H	0.0462	0.320521	0.932656
327	H	0.042742	0.340499	0.982618
328	H	0.008965	0.323183	0.942714
329	C	0.471629	0.180912	0.709344
330	H	0.453962	0.179316	0.735953
331	H	0.491171	0.176622	0.725822
332	H	0.457386	0.159375	0.685935
333	C	0.045554	0.219993	0.681548
334	H	0.070561	0.233865	0.66431
335	H	0.032471	0.19371	0.66711
336	H	0.050904	0.218334	0.716728
337	C	0.42362	0.204022	0.673797
338	H	0.412551	0.212661	0.700187
339	H	0.415508	0.176833	0.681408
340	C	0.076539	0.295875	0.994893
341	H	0.084637	0.323057	0.987252
342	H	0.087636	0.287239	0.968533
343	C	0.18489	0.814388	0.039638
344	C	0.147848	0.796524	0.039854
345	C	0.1296	0.81523	0.03963
346	C	0.148778	0.85227	0.039862
347	C	0.185731	0.870519	0.039645
348	C	0.203594	0.851341	0.039882
349	H	0.135677	0.865993	0.039675
350	H	0.230417	0.86444	0.039679
351	H	0.134125	0.769702	0.039661
352	N	0.20398	0.796409	0.038731
353	H	0.195108	0.777803	0.063512
354	N	0.20371	0.90759	0.038747
355	H	0.222314	0.917322	0.063533
356	N	0.092531	0.796139	0.038724
357	H	0.082796	0.805008	0.063509
358	C	0.315343	0.685791	0.962453
359	C	0.352381	0.703569	0.962223
360	C	0.370546	0.684782	0.962453
361	C	0.351287	0.647745	0.962233
362	C	0.314335	0.629579	0.962459
363	C	0.296556	0.648838	0.962233
364	H	0.364326	0.633961	0.962409
365	H	0.269734	0.6358	0.962409
366	H	0.366164	0.730391	0.962403
367	N	0.296334	0.703852	0.963326
368	H	0.30524	0.722443	0.93852
369	N	0.296272	0.592508	0.96333
370	H	0.27768	0.582823	0.93853
371	N	0.407618	0.703792	0.963323
372	H	0.417299	0.694881	0.93852
373	C	0.228331	0.76544	0.328572
374	C	0.215658	0.729633	0.316629
375	C	0.23665	0.713857	0.325069
376	C	0.272041	0.734894	0.006771
377	C	0.28472	0.770704	0.018697
378	C	0.26372	0.786478	0.010282
379	C	0.22022	0.674743	0.320522
380	H	0.193917	0.661565	0.334907
381	H	0.234058	0.663616	0.33785
382	H	0.218599	0.667704	0.285358
383	C	0.181188	0.709603	0.292586
384	H	0.179602	0.725694	0.266002
385	H	0.159627	0.702268	0.315968
386	H	0.176938	0.685797	0.276067
387	C	0.319214	0.790744	0.042686
388	H	0.320811	0.774671	0.069288
389	H	0.323502	0.814575	0.059171
390	H	0.34075	0.79804	0.019276
391	C	0.280128	0.825584	0.014895
392	H	0.266258	0.836718	0.99766
393	H	0.306414	0.838788	0.000454
394	H	0.281789	0.832593	0.050075
395	C	0.296108	0.719629	0.007133
396	H	0.287474	0.699921	0.033524
397	H	0.323298	0.738707	0.014738
398	C	0.204249	0.780687	0.328231
399	H	0.177068	0.761604	0.320585
400	H	0.212889	0.800424	0.301874
401	C	0.234686	0.962916	0.328601
402	C	0.270487	0.986049	0.316641
403	C	0.286267	0.522817	0.325085
404	C	0.265232	0.537175	0.006777
405	C	0.229421	0.514042	0.018714
406	C	0.213651	0.977269	0.010318
407	C	0.32538	0.545501	0.320515
408	H	0.338563	0.532375	0.33488
409	H	0.336515	0.570469	0.337854
410	H	0.332406	0.550924	0.285352
411	C	0.290512	0.971612	0.29258
412	H	0.27441	0.953926	0.266004
413	H	0.297861	0.95739	0.315956
414	H	0.314305	0.991165	0.276048
415	C	0.209383	0.528502	0.042695
416	H	0.225456	0.546172	0.069301
417	H	0.185552	0.508967	0.059172
418	H	0.202094	0.542747	0.019279
419	C	0.174542	0.954574	0.014922
420	H	0.163407	0.929561	0.997693
421	H	0.161346	0.967655	0.000465
422	H	0.16753	0.949235	0.050098
423	C	0.280501	0.576506	0.00714
424	H	0.300212	0.587578	0.033529
425	H	0.261425	0.58462	0.014752
426	C	0.219439	0.923587	0.328252
427	H	0.238525	0.915492	0.32061
428	H	0.199707	0.912494	0.301889
429	C	0.03721	0.771795	0.328564
430	C	0.014078	0.784466	0.316618
431	C	0.47731	0.763476	0.325058
432	C	0.462954	0.728086	0.006764
433	C	0.486085	0.715407	0.018689
434	C	0.022858	0.736405	0.010273
435	C	0.454627	0.779908	0.320506
436	H	0.467753	0.806212	0.334887
437	H	0.429659	0.766072	0.337837
438	H	0.449209	0.781526	0.285343
439	C	0.028519	0.818936	0.292571
440	H	0.0462	0.820522	0.265989
441	H	0.042742	0.8405	0.315953
442	H	0.008964	0.823181	0.276049
443	C	0.471631	0.680914	0.042679
444	H	0.453963	0.679316	0.069286
445	H	0.491172	0.676623	0.059157
446	H	0.457386	0.659375	0.019269
447	C	0.045555	0.719993	0.014883
448	H	0.07056	0.733866	0.997643
449	H	0.032471	0.693711	0.000442
450	H	0.050905	0.718333	0.05006
451	C	0.423622	0.704023	0.00713
452	H	0.41255	0.712661	0.03352
453	H	0.415509	0.676833	0.014743
454	C	0.07654	0.795876	0.328226
455	H	0.084636	0.823056	0.320586
456	H	0.087635	0.787238	0.301865
457	C	0.18489	0.814388	0.372971
458	C	0.147848	0.796524	0.373187
459	C	0.1296	0.81523	0.372964
460	C	0.148778	0.85227	0.373194
461	C	0.185731	0.870519	0.372977
462	C	0.203594	0.851341	0.373214
463	H	0.135677	0.865993	0.373007
464	H	0.230417	0.86444	0.373014
465	H	0.134125	0.769702	0.372994
466	N	0.20398	0.796409	0.372064
467	H	0.195108	0.777803	0.396846
468	N	0.20371	0.90759	0.37208
469	H	0.222314	0.917322	0.396866
470	N	0.092531	0.796139	0.372057
471	H	0.082796	0.805008	0.396843
472	C	0.315343	0.685791	0.295786
473	C	0.352381	0.703569	0.295556
474	C	0.370546	0.684782	0.295787
475	C	0.351287	0.647745	0.295567
476	C	0.314335	0.629579	0.295791
477	C	0.296556	0.648838	0.295567
478	H	0.364326	0.633961	0.295741
479	H	0.269734	0.6358	0.295742
480	H	0.366164	0.730391	0.295736
481	N	0.296334	0.703852	0.296658
482	H	0.30524	0.722443	0.271853
483	N	0.296272	0.592508	0.296664
484	H	0.27768	0.582823	0.271862
485	N	0.407618	0.703792	0.296655
486	H	0.417299	0.694881	0.271853
487	C	0.228331	0.76544	0.661906
488	C	0.215658	0.729633	0.649962
489	C	0.23665	0.713857	0.658402
490	C	0.272041	0.734894	0.340104
491	C	0.28472	0.770704	0.352032
492	C	0.26372	0.786478	0.343614
493	C	0.22022	0.674743	0.653855
494	H	0.193917	0.661565	0.668243
495	H	0.234058	0.663616	0.671184
496	H	0.218599	0.667704	0.618692
497	C	0.181188	0.709603	0.625919
498	H	0.179602	0.725694	0.599337
499	H	0.159627	0.702268	0.649301
500	H	0.176938	0.685797	0.609401
501	C	0.319214	0.790744	0.376021
502	H	0.320811	0.774671	0.40262
503	H	0.323502	0.814575	0.392506
504	H	0.34075	0.79804	0.352609
505	C	0.280128	0.825584	0.348228
506	H	0.266258	0.836718	0.330993
507	H	0.306414	0.838788	0.333787
508	H	0.281789	0.832593	0.383408
509	C	0.296108	0.719629	0.340467
510	H	0.287474	0.699921	0.366857
511	H	0.323298	0.738707	0.348071
512	C	0.204249	0.780687	0.661566
513	H	0.177068	0.761604	0.653919
514	H	0.212889	0.800424	0.635207
515	C	0.234686	0.962916	0.661933
516	C	0.270487	0.986049	0.649975
517	C	0.286267	0.522817	0.658419
518	C	0.265232	0.537175	0.340111
519	C	0.229421	0.514042	0.352048
520	C	0.213651	0.977269	0.343651
521	C	0.32538	0.545501	0.653849
522	H	0.338563	0.532375	0.668213
523	H	0.336515	0.570469	0.671187
524	H	0.332406	0.550924	0.618685
525	C	0.290512	0.971612	0.625912
526	H	0.27441	0.953926	0.599337
527	H	0.297861	0.95739	0.649288
528	H	0.314305	0.991165	0.609381
529	C	0.209383	0.528502	0.376028
530	H	0.225456	0.546172	0.402634
531	H	0.185552	0.508967	0.392506
532	H	0.202094	0.542747	0.352612
533	C	0.174542	0.954574	0.348255
534	H	0.163407	0.929561	0.331026
535	H	0.161346	0.967655	0.3338
536	H	0.16753	0.949235	0.383432
537	C	0.280501	0.576506	0.340474
538	H	0.300212	0.587578	0.366863
539	H	0.261425	0.58462	0.348085
540	C	0.219439	0.923587	0.661586
541	H	0.238525	0.915492	0.653942
542	H	0.199707	0.912494	0.635223
543	C	0.03721	0.771795	0.661899
544	C	0.014078	0.784466	0.649952
545	C	0.47731	0.763476	0.658392
546	C	0.462954	0.728086	0.340097
547	C	0.486085	0.715407	0.352022
548	C	0.022858	0.736405	0.343608
549	C	0.454627	0.779908	0.653839
550	H	0.467753	0.806212	0.66822
551	H	0.429659	0.766072	0.67117
552	H	0.449209	0.781526	0.618678
553	C	0.028519	0.818936	0.625906
554	H	0.0462	0.820522	0.599323
555	H	0.042742	0.8405	0.649285
556	H	0.008964	0.823181	0.609381
557	C	0.471631	0.680914	0.376011
558	H	0.453963	0.679316	0.40262
559	H	0.491172	0.676623	0.392489
560	H	0.457386	0.659375	0.352602
561	C	0.045555	0.719993	0.348215
562	H	0.07056	0.733866	0.330975
563	H	0.032471	0.693711	0.333777
564	H	0.050905	0.718333	0.383392
565	C	0.423622	0.704023	0.340464
566	H	0.41255	0.712661	0.366853
567	H	0.415509	0.676833	0.348075
568	C	0.07654	0.795876	0.661559
569	H	0.084636	0.823056	0.653919
570	H	0.087635	0.787238	0.6352
571	C	0.18489	0.814388	0.706304
572	C	0.147848	0.796524	0.706521
573	C	0.1296	0.81523	0.706297
574	C	0.148778	0.85227	0.706527
575	C	0.185731	0.870519	0.706311
576	C	0.203594	0.851341	0.706547
577	H	0.135677	0.865993	0.706341
578	H	0.230417	0.86444	0.706347
579	H	0.134125	0.769702	0.706327
580	N	0.20398	0.796409	0.705397
581	H	0.195108	0.777803	0.73018
582	N	0.20371	0.90759	0.705414
583	H	0.222314	0.917322	0.7302
584	N	0.092531	0.796139	0.70539
585	H	0.082796	0.805008	0.730176
586	C	0.315343	0.685791	0.629119
587	C	0.352381	0.703569	0.628889
588	C	0.370546	0.684782	0.629119
589	C	0.351287	0.647745	0.628899
590	C	0.314335	0.629579	0.629123
591	C	0.296556	0.648838	0.628899
592	H	0.364326	0.633961	0.629076
593	H	0.269734	0.6358	0.629076
594	H	0.366164	0.730391	0.629069
595	N	0.296334	0.703852	0.62999
596	H	0.30524	0.722443	0.605187
597	N	0.296272	0.592508	0.629996
598	H	0.27768	0.582823	0.605197
599	N	0.407618	0.703792	0.62999
600	H	0.417299	0.694881	0.605187
601	C	0.228331	0.76544	0.995239
602	C	0.215658	0.729633	0.983295
603	C	0.23665	0.713857	0.991736
604	C	0.272041	0.734894	0.673437
605	C	0.28472	0.770704	0.685365
606	C	0.26372	0.786478	0.676948
607	C	0.22022	0.674743	0.987189
608	H	0.193917	0.661565	0.001575
609	H	0.234058	0.663616	0.004517
610	H	0.218599	0.667704	0.952025
611	C	0.181188	0.709603	0.959252
612	H	0.179602	0.725694	0.93267
613	H	0.159627	0.702268	0.982635
614	H	0.176938	0.685797	0.942734
615	C	0.319214	0.790744	0.709354
616	H	0.320811	0.774671	0.735953
617	H	0.323502	0.814575	0.725839
618	H	0.34075	0.79804	0.685942
619	C	0.280128	0.825584	0.681561
620	H	0.266258	0.836718	0.664326
621	H	0.306414	0.838788	0.66712
622	H	0.281789	0.832593	0.716742
623	C	0.296108	0.719629	0.673801
624	H	0.287474	0.699921	0.70019
625	H	0.323298	0.738707	0.681405
626	C	0.204249	0.780687	0.994899
627	H	0.177068	0.761604	0.987252
628	H	0.212889	0.800424	0.96854
629	C	0.234686	0.962916	0.995266
630	C	0.270487	0.986049	0.983308
631	C	0.286267	0.522817	0.991752
632	C	0.265232	0.537175	0.673444
633	C	0.229421	0.514042	0.685382
634	C	0.213651	0.977269	0.676984
635	C	0.32538	0.545501	0.987182
636	H	0.338563	0.532375	0.001547
637	H	0.336515	0.570469	0.004522
638	H	0.332406	0.550924	0.952018
639	C	0.290512	0.971612	0.959246
640	H	0.27441	0.953926	0.93267
641	H	0.297861	0.95739	0.982621
642	H	0.314305	0.991165	0.942714
643	C	0.209383	0.528502	0.709361
644	H	0.225456	0.546172	0.735967
645	H	0.185552	0.508967	0.725839
646	H	0.202094	0.542747	0.685945
647	C	0.174542	0.954574	0.681588
648	H	0.163407	0.929561	0.66436
649	H	0.161346	0.967655	0.667133
650	H	0.16753	0.949235	0.716765
651	C	0.280501	0.576506	0.673807
652	H	0.300212	0.587578	0.700197
653	H	0.261425	0.58462	0.681418
654	C	0.219439	0.923587	0.994919
655	H	0.238525	0.915492	0.987275
656	H	0.199707	0.912494	0.968557
657	C	0.03721	0.771795	0.995233
658	C	0.014078	0.784466	0.983285
659	C	0.47731	0.763476	0.991726
660	C	0.462954	0.728086	0.673431
661	C	0.486085	0.715407	0.685355
662	C	0.022858	0.736405	0.676941
663	C	0.454627	0.779908	0.987172
664	H	0.467753	0.806212	0.001554
665	H	0.429659	0.766072	0.004504
666	H	0.449209	0.781526	0.952012
667	C	0.028519	0.818936	0.959239
668	H	0.0462	0.820522	0.932656
669	H	0.042742	0.8405	0.982618
670	H	0.008964	0.823181	0.942714
671	C	0.471631	0.680914	0.709344
672	H	0.453963	0.679316	0.735953
673	H	0.491172	0.676623	0.725822
674	H	0.457386	0.659375	0.685935
675	C	0.045555	0.719993	0.681548
676	H	0.07056	0.733866	0.66431
677	H	0.032471	0.693711	0.66711
678	H	0.050905	0.718333	0.716728
679	C	0.423622	0.704023	0.673797
680	H	0.41255	0.712661	0.700187
681	H	0.415509	0.676833	0.681408
682	C	0.07654	0.795876	0.994893
683	H	0.084636	0.823056	0.987252
684	H	0.087635	0.787238	0.968533
685	C	0.68489	0.314387	0.039638
686	C	0.647849	0.296526	0.039854
687	C	0.6296	0.315229	0.03963
688	C	0.648778	0.352271	0.039862
689	C	0.685731	0.370518	0.039645
690	C	0.703593	0.35134	0.039882
691	H	0.635679	0.365994	0.039675
692	H	0.730418	0.364442	0.039679
693	H	0.634123	0.2697	0.039661
694	N	0.70398	0.296408	0.038731
695	H	0.695108	0.277801	0.063512
696	N	0.70371	0.407589	0.038747
697	H	0.722312	0.417321	0.063533
698	N	0.59253	0.29614	0.038724
699	H	0.582795	0.305009	0.063509
700	C	0.815343	0.18579	0.962453
701	C	0.852381	0.203569	0.962223
702	C	0.870547	0.184782	0.962453
703	C	0.851287	0.147744	0.962233
704	C	0.814334	0.129578	0.962459
705	C	0.796556	0.148838	0.962233
706	H	0.864327	0.13396	0.962409
707	H	0.769735	0.135798	0.962409
708	H	0.866164	0.230391	0.962403
709	N	0.796333	0.203853	0.963326
710	H	0.805239	0.222441	0.93852
711	N	0.796273	0.092507	0.96333
712	H	0.777679	0.082823	0.93853
713	N	0.907618	0.20379	0.963323
714	H	0.917299	0.194881	0.93852
715	C	0.728331	0.265439	0.328572
716	C	0.715658	0.229633	0.316629
717	C	0.73665	0.213858	0.325069
718	C	0.772041	0.234893	0.006771
719	C	0.784721	0.270705	0.018697
720	C	0.763718	0.286476	0.010282
721	C	0.72022	0.174743	0.320522
722	H	0.693917	0.161565	0.334907
723	H	0.734058	0.163615	0.33785
724	H	0.718599	0.167703	0.285358
725	C	0.681188	0.209603	0.292586
726	H	0.679602	0.225695	0.266002
727	H	0.659626	0.202268	0.315968
728	H	0.676938	0.185797	0.276067
729	C	0.819213	0.290743	0.042686
730	H	0.820812	0.274673	0.069288
731	H	0.823503	0.314576	0.059171
732	H	0.84075	0.298041	0.019276
733	C	0.780129	0.325585	0.014895
734	H	0.766257	0.336717	0.99766
735	H	0.806414	0.338786	0.000454
736	H	0.781789	0.332592	0.050075
737	C	0.796108	0.219627	0.007133
738	H	0.787474	0.19992	0.033524
739	H	0.823299	0.238706	0.014738
740	C	0.70425	0.280686	0.328231
741	H	0.677069	0.261604	0.320585
742	H	0.712889	0.300422	0.301874
743	C	0.734685	0.462915	0.328601
744	C	0.770486	0.486047	0.316641
745	C	0.786266	0.022816	0.325085
746	C	0.765231	0.037173	0.006777
747	C	0.729422	0.014043	0.018714
748	C	0.713651	0.477267	0.010318
749	C	0.825379	0.0455	0.320515
750	H	0.838562	0.032376	0.33488
751	H	0.836515	0.070468	0.337854
752	H	0.832406	0.050924	0.285352
753	C	0.790512	0.471611	0.29258
754	H	0.77441	0.453925	0.266004
755	H	0.797861	0.457389	0.315956
756	H	0.814307	0.491166	0.276048
757	C	0.709385	0.028503	0.042695
758	H	0.725458	0.046173	0.069301
759	H	0.685552	0.008967	0.059172
760	H	0.702095	0.042747	0.019279
761	C	0.674543	0.454575	0.014921
762	H	0.663407	0.42956	0.997693
763	H	0.661344	0.467653	0.000465
764	H	0.66753	0.449233	0.050098
765	C	0.780501	0.076506	0.00714
766	H	0.800213	0.087579	0.033529
767	H	0.761427	0.084621	0.014752
768	C	0.71944	0.423586	0.328252
769	H	0.738523	0.41549	0.32061
770	H	0.699706	0.412493	0.301889
771	C	0.53721	0.271793	0.328564
772	C	0.514077	0.284467	0.316618
773	C	0.977309	0.263475	0.325058
774	C	0.962954	0.228087	0.006764
775	C	0.986085	0.215406	0.018689
776	C	0.522857	0.236405	0.010273
777	C	0.954627	0.279907	0.320506
778	H	0.967751	0.30621	0.334887
779	H	0.929658	0.266071	0.337837
780	H	0.949208	0.281525	0.285343
781	C	0.528517	0.318934	0.292571
782	H	0.546201	0.320521	0.265989
783	H	0.542743	0.340499	0.315953
784	H	0.508964	0.323183	0.276049
785	C	0.971629	0.180912	0.042679
786	H	0.953962	0.179316	0.069286
787	H	0.991171	0.176622	0.059157
788	H	0.957386	0.159375	0.019269
789	C	0.545554	0.219993	0.014883
790	H	0.570561	0.233865	0.997643
791	H	0.532472	0.19371	0.000442
792	H	0.550904	0.218334	0.05006
793	C	0.923623	0.204022	0.00713
794	H	0.912551	0.212661	0.03352
795	H	0.915508	0.176833	0.014743
796	C	0.576539	0.295875	0.328226
797	H	0.584638	0.323057	0.320586
798	H	0.587637	0.287239	0.301865
799	C	0.68489	0.314387	0.372971
800	C	0.647849	0.296526	0.373187
801	C	0.6296	0.315229	0.372964
802	C	0.648778	0.352271	0.373194
803	C	0.685731	0.370518	0.372977
804	C	0.703593	0.35134	0.373214
805	H	0.635679	0.365994	0.373007
806	H	0.730418	0.364442	0.373014
807	H	0.634123	0.2697	0.372994
808	N	0.70398	0.296408	0.372064
809	H	0.695108	0.277801	0.396846
810	N	0.70371	0.407589	0.37208
811	H	0.722312	0.417321	0.396866
812	N	0.59253	0.29614	0.372057
813	H	0.582795	0.305009	0.396843
814	C	0.815343	0.18579	0.295786
815	C	0.852381	0.203569	0.295556
816	C	0.870547	0.184782	0.295787
817	C	0.851287	0.147744	0.295567
818	C	0.814334	0.129578	0.295791
819	C	0.796556	0.148838	0.295567
820	H	0.864327	0.13396	0.295741
821	H	0.769735	0.135798	0.295742
822	H	0.866164	0.230391	0.295736
823	N	0.796333	0.203853	0.296658
824	H	0.805239	0.222441	0.271853
825	N	0.796273	0.092507	0.296664
826	H	0.777679	0.082823	0.271862
827	N	0.907618	0.20379	0.296655
828	H	0.917299	0.194881	0.271853
829	C	0.728331	0.265439	0.661906
830	C	0.715658	0.229633	0.649962
831	C	0.73665	0.213858	0.658402
832	C	0.772041	0.234893	0.340104
833	C	0.784721	0.270705	0.352032
834	C	0.763718	0.286476	0.343614
835	C	0.72022	0.174743	0.653855
836	H	0.693917	0.161565	0.668243
837	H	0.734058	0.163615	0.671184
838	H	0.718599	0.167703	0.618692
839	C	0.681188	0.209603	0.625919
840	H	0.679602	0.225695	0.599337
841	H	0.659626	0.202268	0.649301
842	H	0.676938	0.185797	0.609401
843	C	0.819213	0.290743	0.376021
844	H	0.820812	0.274673	0.40262
845	H	0.823503	0.314576	0.392506
846	H	0.84075	0.298041	0.352609
847	C	0.780129	0.325585	0.348228
848	H	0.766257	0.336717	0.330993
849	H	0.806414	0.338786	0.333787
850	H	0.781789	0.332592	0.383408
851	C	0.796108	0.219627	0.340467
852	H	0.787474	0.19992	0.366857
853	H	0.823299	0.238706	0.348071
854	C	0.70425	0.280686	0.661566
855	H	0.677069	0.261604	0.653919
856	H	0.712889	0.300422	0.635207
857	C	0.734685	0.462915	0.661933
858	C	0.770486	0.486047	0.649975
859	C	0.786266	0.022816	0.658419
860	C	0.765231	0.037173	0.340111
861	C	0.729422	0.014043	0.352048
862	C	0.713651	0.477267	0.343651
863	C	0.825379	0.0455	0.653849
864	H	0.838562	0.032376	0.668213
865	H	0.836515	0.070468	0.671187
866	H	0.832406	0.050924	0.618685
867	C	0.790512	0.471611	0.625912
868	H	0.77441	0.453925	0.599337
869	H	0.797861	0.457389	0.649288
870	H	0.814307	0.491166	0.609381
871	C	0.709385	0.028503	0.376028
872	H	0.725458	0.046173	0.402634
873	H	0.685552	0.008967	0.392506
874	H	0.702095	0.042747	0.352612
875	C	0.674543	0.454575	0.348255
876	H	0.663407	0.42956	0.331026
877	H	0.661344	0.467653	0.3338
878	H	0.66753	0.449233	0.383432
879	C	0.780501	0.076506	0.340474
880	H	0.800213	0.087579	0.366863
881	H	0.761427	0.084621	0.348085
882	C	0.71944	0.423586	0.661586
883	H	0.738523	0.41549	0.653942
884	H	0.699706	0.412493	0.635223
885	C	0.53721	0.271793	0.661899
886	C	0.514077	0.284467	0.649952
887	C	0.977309	0.263475	0.658392
888	C	0.962954	0.228087	0.340097
889	C	0.986085	0.215406	0.352022
890	C	0.522857	0.236405	0.343608
891	C	0.954627	0.279907	0.653839
892	H	0.967751	0.30621	0.66822
893	H	0.929658	0.266071	0.67117
894	H	0.949208	0.281525	0.618678
895	C	0.528517	0.318934	0.625906
896	H	0.546201	0.320521	0.599323
897	H	0.542743	0.340499	0.649285
898	H	0.508964	0.323183	0.609381
899	C	0.971629	0.180912	0.376011
900	H	0.953962	0.179316	0.40262
901	H	0.991171	0.176622	0.392489
902	H	0.957386	0.159375	0.352602
903	C	0.545554	0.219993	0.348215
904	H	0.570561	0.233865	0.330975
905	H	0.532472	0.19371	0.333777
906	H	0.550904	0.218334	0.383392
907	C	0.923623	0.204022	0.340464
908	H	0.912551	0.212661	0.366853
909	H	0.915508	0.176833	0.348075
910	C	0.576539	0.295875	0.661559
911	H	0.584638	0.323057	0.653919
912	H	0.587637	0.287239	0.6352
913	C	0.68489	0.314387	0.706304
914	C	0.647849	0.296526	0.706521
915	C	0.6296	0.315229	0.706297
916	C	0.648778	0.352271	0.706527
917	C	0.685731	0.370518	0.706311
918	C	0.703593	0.35134	0.706547
919	H	0.635679	0.365994	0.706341
920	H	0.730418	0.364442	0.706347
921	H	0.634123	0.2697	0.706327
922	N	0.70398	0.296408	0.705397
923	H	0.695108	0.277801	0.73018
924	N	0.70371	0.407589	0.705414
925	H	0.722312	0.417321	0.7302
926	N	0.59253	0.29614	0.70539
927	H	0.582795	0.305009	0.730176
928	C	0.815343	0.18579	0.629119
929	C	0.852381	0.203569	0.628889
930	C	0.870547	0.184782	0.629119
931	C	0.851287	0.147744	0.628899
932	C	0.814334	0.129578	0.629123
933	C	0.796556	0.148838	0.628899
934	H	0.864327	0.13396	0.629073
935	H	0.769735	0.135798	0.629076
936	H	0.866164	0.230391	0.629069
937	N	0.796333	0.203853	0.62999
938	H	0.805239	0.222441	0.605187
939	N	0.796273	0.092507	0.629996
940	H	0.777679	0.082823	0.605197
941	N	0.907618	0.20379	0.62999
942	H	0.917299	0.194881	0.605187
943	C	0.728331	0.265439	0.995239
944	C	0.715658	0.229633	0.983295
945	C	0.73665	0.213858	0.991736
946	C	0.772041	0.234893	0.673437
947	C	0.784721	0.270705	0.685365
948	C	0.763718	0.286476	0.676948
949	C	0.72022	0.174743	0.987189
950	H	0.693917	0.161565	0.001575
951	H	0.734058	0.163615	0.004517
952	H	0.718599	0.167703	0.952025
953	C	0.681188	0.209603	0.959252
954	H	0.679602	0.225695	0.93267
955	H	0.659626	0.202268	0.982635
956	H	0.676938	0.185797	0.942734
957	C	0.819213	0.290743	0.709354
958	H	0.820812	0.274673	0.735953
959	H	0.823503	0.314576	0.725839
960	H	0.84075	0.298041	0.685942
961	C	0.780129	0.325585	0.681561
962	H	0.766257	0.336717	0.664326
963	H	0.806414	0.338786	0.66712
964	H	0.781789	0.332592	0.716742
965	C	0.796108	0.219627	0.673801
966	H	0.787474	0.19992	0.70019
967	H	0.823299	0.238706	0.681405
968	C	0.70425	0.280686	0.994899
969	H	0.677069	0.261604	0.987252
970	H	0.712889	0.300422	0.96854
971	C	0.734685	0.462915	0.995266
972	C	0.770486	0.486047	0.983308
973	C	0.786266	0.022816	0.991752
974	C	0.765231	0.037173	0.673444
975	C	0.729422	0.014043	0.685382
976	C	0.713651	0.477267	0.676984
977	C	0.825379	0.0455	0.987182
978	H	0.838562	0.032376	0.001547
979	H	0.836515	0.070468	0.004522
980	H	0.832406	0.050924	0.952018
981	C	0.790512	0.471611	0.959246
982	H	0.77441	0.453925	0.93267
983	H	0.797861	0.457389	0.982621
984	H	0.814307	0.491166	0.942714
985	C	0.709385	0.028503	0.709361
986	H	0.725458	0.046173	0.735967
987	H	0.685552	0.008967	0.725839
988	H	0.702095	0.042747	0.685945
989	C	0.674543	0.454575	0.681588
990	H	0.663407	0.42956	0.66436
991	H	0.661344	0.467653	0.667133
992	H	0.66753	0.449233	0.716765
993	C	0.780501	0.076506	0.673807
994	H	0.800213	0.087579	0.700197
995	H	0.761427	0.084621	0.681418
996	C	0.71944	0.423586	0.994919
997	H	0.738523	0.41549	0.987275
998	H	0.699706	0.412493	0.968557
999	C	0.53721	0.271793	0.995233
1000	C	0.514077	0.284467	0.983285
1001	C	0.977309	0.263475	0.991726
1002	C	0.962954	0.228087	0.673431
1003	C	0.986085	0.215406	0.685355
1004	C	0.522857	0.236405	0.676941
1005	C	0.954627	0.279907	0.987172
1006	H	0.967751	0.30621	0.001554
1007	H	0.929658	0.266071	0.004504
1008	H	0.949208	0.281525	0.952012
1009	C	0.528517	0.318934	0.959239
1010	H	0.546201	0.320521	0.932656
1011	H	0.542743	0.340499	0.982618
1012	H	0.508964	0.323183	0.942714
1013	C	0.971629	0.180912	0.709344
1014	H	0.953962	0.179316	0.735953
1015	H	0.991171	0.176622	0.725822
1016	H	0.957386	0.159375	0.685935
1017	C	0.545554	0.219993	0.681548
1018	H	0.570561	0.233865	0.66431
1019	H	0.532472	0.19371	0.66711
1020	H	0.550904	0.218334	0.716728
1021	C	0.923623	0.204022	0.673797
1022	H	0.912551	0.212661	0.700187
1023	H	0.915508	0.176833	0.681408
1024	C	0.576539	0.295875	0.994893
1025	H	0.584638	0.323057	0.987252
1026	H	0.587637	0.287239	0.968533
1027	C	0.684889	0.814388	0.039638
1028	C	0.647848	0.796524	0.039854
1029	C	0.6296	0.81523	0.03963
1030	C	0.648778	0.85227	0.039862
1031	C	0.685731	0.870519	0.039645
1032	C	0.703593	0.851341	0.039882
1033	H	0.635678	0.865993	0.039675
1034	H	0.730416	0.86444	0.039679
1035	H	0.634125	0.769702	0.039661
1036	N	0.703979	0.796409	0.038731
1037	H	0.695108	0.777803	0.063512
1038	N	0.70371	0.90759	0.038747
1039	H	0.722314	0.917322	0.063533
1040	N	0.59253	0.796139	0.038724
1041	H	0.582795	0.805008	0.063509
1042	C	0.815343	0.685791	0.962453
1043	C	0.852382	0.703569	0.962223
1044	C	0.870546	0.684782	0.962453
1045	C	0.851287	0.647745	0.962233
1046	C	0.814335	0.629579	0.962459
1047	C	0.796555	0.648838	0.962233
1048	H	0.864326	0.633961	0.962409
1049	H	0.769734	0.6358	0.962409
1050	H	0.866163	0.730391	0.962403
1051	N	0.796334	0.703852	0.963326
1052	H	0.805241	0.722443	0.93852
1053	N	0.796272	0.592508	0.96333
1054	H	0.777681	0.582823	0.93853
1055	N	0.907617	0.703792	0.963323
1056	H	0.9173	0.694881	0.93852
1057	C	0.72833	0.76544	0.328572
1058	C	0.715657	0.729633	0.316629
1059	C	0.736651	0.713857	0.325069
1060	C	0.77204	0.734894	0.006771
1061	C	0.784719	0.770704	0.018697
1062	C	0.76372	0.786478	0.010282
1063	C	0.720219	0.674743	0.320522
1064	H	0.693917	0.661565	0.334907
1065	H	0.73406	0.663616	0.33785
1066	H	0.7186	0.667704	0.285358
1067	C	0.681189	0.709603	0.292586
1068	H	0.679601	0.725694	0.266002
1069	H	0.659628	0.702268	0.315968
1070	H	0.676939	0.685797	0.276067
1071	C	0.819215	0.790744	0.042686
1072	H	0.820813	0.774671	0.069288
1073	H	0.823502	0.814575	0.059171
1074	H	0.84075	0.79804	0.019276
1075	C	0.780127	0.825584	0.014895
1076	H	0.766259	0.836718	0.99766
1077	H	0.806413	0.838788	0.000454
1078	H	0.78179	0.832593	0.050075
1079	C	0.796108	0.719629	0.007133
1080	H	0.787473	0.699921	0.033524
1081	H	0.823298	0.738707	0.014738
1082	C	0.704249	0.780687	0.328231
1083	H	0.677068	0.761604	0.320585
1084	H	0.712889	0.800424	0.301874
1085	C	0.734686	0.962916	0.328601
1086	C	0.770488	0.986049	0.316641
1087	C	0.786268	0.522817	0.325085
1088	C	0.765233	0.537175	0.006777
1089	C	0.72942	0.514042	0.018714
1090	C	0.713652	0.977269	0.010318
1091	C	0.825381	0.545501	0.320515
1092	H	0.838563	0.532375	0.33488
1093	H	0.836514	0.570469	0.337854
1094	H	0.832405	0.550924	0.285352
1095	C	0.790514	0.971612	0.29258
1096	H	0.77441	0.953926	0.266004
1097	H	0.797861	0.95739	0.315956
1098	H	0.814305	0.991165	0.276048
1099	C	0.709383	0.528502	0.042695
1100	H	0.725456	0.546172	0.069301
1101	H	0.685553	0.508967	0.059172
1102	H	0.702094	0.542747	0.019279
1103	C	0.674542	0.954574	0.014922
1104	H	0.663407	0.929561	0.997693
1105	H	0.661346	0.967655	0.000465
1106	H	0.66753	0.949235	0.050098
1107	C	0.780502	0.576506	0.00714
1108	H	0.800212	0.587578	0.033529
1109	H	0.761425	0.58462	0.014752
1110	C	0.719439	0.923587	0.328252
1111	H	0.738525	0.915492	0.32061
1112	H	0.699707	0.912494	0.301889
1113	C	0.53721	0.771795	0.328564
1114	C	0.514077	0.784466	0.316618
1115	C	0.977311	0.763476	0.325058
1116	C	0.962954	0.728086	0.006764
1117	C	0.986084	0.715407	0.018689
1118	C	0.522858	0.736405	0.010273
1119	C	0.954628	0.779908	0.320506
1120	H	0.967753	0.806212	0.334887
1121	H	0.92966	0.766072	0.337837
1122	H	0.949208	0.781526	0.285343
1123	C	0.528519	0.818936	0.292571
1124	H	0.546201	0.820522	0.265989
1125	H	0.542743	0.8405	0.315953
1126	H	0.508964	0.823181	0.276049
1127	C	0.971631	0.680914	0.042679
1128	H	0.953963	0.679316	0.069286
1129	H	0.991173	0.676623	0.059157
1130	H	0.957385	0.659375	0.019269
1131	C	0.545554	0.719993	0.014883
1132	H	0.570561	0.733866	0.997643
1133	H	0.532472	0.693711	0.000442
1134	H	0.550904	0.718333	0.05006
1135	C	0.923622	0.704023	0.00713
1136	H	0.912549	0.712661	0.03352
1137	H	0.915509	0.676833	0.014743
1138	C	0.57654	0.795876	0.328226
1139	H	0.584636	0.823056	0.320586
1140	H	0.587636	0.787238	0.301865
1141	C	0.684889	0.814388	0.372971
1142	C	0.647848	0.796524	0.373187
1143	C	0.6296	0.81523	0.372964
1144	C	0.648778	0.85227	0.373194
1145	C	0.685731	0.870519	0.372977
1146	C	0.703593	0.851341	0.373214
1147	H	0.635678	0.865993	0.373007
1148	H	0.730416	0.86444	0.373014
1149	H	0.634125	0.769702	0.372994
1150	N	0.703979	0.796409	0.372064
1151	H	0.695108	0.777803	0.396846
1152	N	0.70371	0.90759	0.37208
1153	H	0.722314	0.917322	0.396866
1154	N	0.59253	0.796139	0.372057
1155	H	0.582795	0.805008	0.396843
1156	C	0.815343	0.685791	0.295786
1157	C	0.852382	0.703569	0.295556
1158	C	0.870546	0.684782	0.295787
1159	C	0.851287	0.647745	0.295567
1160	C	0.814335	0.629579	0.295791
1161	C	0.796555	0.648838	0.295567
1162	H	0.864326	0.633961	0.295741
1163	H	0.769734	0.6358	0.295742
1164	H	0.866163	0.730391	0.295736
1165	N	0.796334	0.703852	0.296658
1166	H	0.805241	0.722443	0.271853
1167	N	0.796272	0.592508	0.296664
1168	H	0.777681	0.582823	0.271862
1169	N	0.907617	0.703792	0.296655
1170	H	0.9173	0.694881	0.271853
1171	C	0.72833	0.76544	0.661906
1172	C	0.715657	0.729633	0.649962
1173	C	0.736651	0.713857	0.658402
1174	C	0.77204	0.734894	0.340104
1175	C	0.784719	0.770704	0.352032
1176	C	0.76372	0.786478	0.343614
1177	C	0.720219	0.674743	0.653855
1178	H	0.693917	0.661565	0.668243
1179	H	0.73406	0.663616	0.671184
1180	H	0.7186	0.667704	0.618692
1181	C	0.681189	0.709603	0.625919
1182	H	0.679601	0.725694	0.599337
1183	H	0.659628	0.702268	0.649301
1184	H	0.676939	0.685797	0.609401
1185	C	0.819215	0.790744	0.376021
1186	H	0.820813	0.774671	0.40262
1187	H	0.823502	0.814575	0.392506
1188	H	0.84075	0.79804	0.352609
1189	C	0.780127	0.825584	0.348228
1190	H	0.766259	0.836718	0.330993
1191	H	0.806413	0.838788	0.333787
1192	H	0.78179	0.832593	0.383408
1193	C	0.796108	0.719629	0.340467
1194	H	0.787473	0.699921	0.366857
1195	H	0.823298	0.738707	0.348071
1196	C	0.704249	0.780687	0.661566
1197	H	0.677068	0.761604	0.653919
1198	H	0.712889	0.800424	0.635207
1199	C	0.734686	0.962916	0.661933
1200	C	0.770488	0.986049	0.649975
1201	C	0.786268	0.522817	0.658419
1202	C	0.765233	0.537175	0.340111
1203	C	0.72942	0.514042	0.352048
1204	C	0.713652	0.977269	0.343651
1205	C	0.825381	0.545501	0.653849
1206	H	0.838563	0.532375	0.668213
1207	H	0.836514	0.570469	0.671187
1208	H	0.832405	0.550924	0.618685
1209	C	0.790514	0.971612	0.625912
1210	H	0.77441	0.953926	0.599337
1211	H	0.797861	0.95739	0.649288
1212	H	0.814305	0.991165	0.609381
1213	C	0.709383	0.528502	0.376028
1214	H	0.725456	0.546172	0.402634
1215	H	0.685553	0.508967	0.392506
1216	H	0.702094	0.542747	0.352612
1217	C	0.674542	0.954574	0.348255
1218	H	0.663407	0.929561	0.331026
1219	H	0.661346	0.967655	0.3338
1220	H	0.66753	0.949235	0.383432
1221	C	0.780502	0.576506	0.340474
1222	H	0.800212	0.587578	0.366863
1223	H	0.761425	0.58462	0.348085
1224	C	0.719439	0.923587	0.661586
1225	H	0.738525	0.915492	0.653942
1226	H	0.699707	0.912494	0.635223
1227	C	0.53721	0.771795	0.661899
1228	C	0.514077	0.784466	0.649952
1229	C	0.977311	0.763476	0.658392
1230	C	0.962954	0.728086	0.340097
1231	C	0.986084	0.715407	0.352022
1232	C	0.522858	0.736405	0.343608
1233	C	0.954628	0.779908	0.653839
1234	H	0.967753	0.806212	0.66822
1235	H	0.92966	0.766072	0.67117
1236	H	0.949208	0.781526	0.618678
1237	C	0.528519	0.818936	0.625906
1238	H	0.546201	0.820522	0.599323
1239	H	0.542743	0.8405	0.649285
1240	H	0.508964	0.823181	0.609381
1241	C	0.971631	0.680914	0.376011
1242	H	0.953963	0.679316	0.40262
1243	H	0.991173	0.676623	0.392489
1244	H	0.957385	0.659375	0.352602
1245	C	0.545554	0.719993	0.348215
1246	H	0.570561	0.733866	0.330975
1247	H	0.532472	0.693711	0.333777
1248	H	0.550904	0.718333	0.383392
1249	C	0.923622	0.704023	0.340464
1250	H	0.912549	0.712661	0.366853
1251	H	0.915509	0.676833	0.348075
1252	C	0.57654	0.795876	0.661559
1253	H	0.584636	0.823056	0.653919
1254	H	0.587636	0.787238	0.6352
1255	C	0.684889	0.814388	0.706304
1256	C	0.647848	0.796524	0.706521
1257	C	0.6296	0.81523	0.706297
1258	C	0.648778	0.85227	0.706527
1259	C	0.685731	0.870519	0.706311
1260	C	0.703593	0.851341	0.706547
1261	H	0.635678	0.865993	0.706341
1262	H	0.730416	0.86444	0.706347
1263	H	0.634125	0.769702	0.706327
1264	N	0.703979	0.796409	0.705397
1265	H	0.695108	0.777803	0.73018
1266	N	0.70371	0.90759	0.705414
1267	H	0.722314	0.917322	0.7302
1268	N	0.59253	0.796139	0.70539
1269	H	0.582795	0.805008	0.730176
1270	C	0.815343	0.685791	0.629119
1271	C	0.852382	0.703569	0.628889
1272	C	0.870546	0.684782	0.629119
1273	C	0.851287	0.647745	0.628899
1274	C	0.814335	0.629579	0.629123
1275	C	0.796555	0.648838	0.628899
1276	H	0.864326	0.633961	0.629076
1277	H	0.769734	0.6358	0.629076
1278	H	0.866163	0.730391	0.629069
1279	N	0.796334	0.703852	0.62999
1280	H	0.805241	0.722443	0.605187
1281	N	0.796272	0.592508	0.629996
1282	H	0.777681	0.582823	0.605197
1283	N	0.907617	0.703792	0.62999
1284	H	0.9173	0.694881	0.605187
1285	C	0.72833	0.76544	0.995239
1286	C	0.715657	0.729633	0.983295
1287	C	0.736651	0.713857	0.991736
1288	C	0.77204	0.734894	0.673437
1289	C	0.784719	0.770704	0.685365
1290	C	0.76372	0.786478	0.676948
1291	C	0.720219	0.674743	0.987189
1292	H	0.693917	0.661565	0.001575
1293	H	0.73406	0.663616	0.004517
1294	H	0.7186	0.667704	0.952025
1295	C	0.681189	0.709603	0.959252
1296	H	0.679601	0.725694	0.93267
1297	H	0.659628	0.702268	0.982635
1298	H	0.676939	0.685797	0.942734
1299	C	0.819215	0.790744	0.709354
1300	H	0.820813	0.774671	0.735953
1301	H	0.823502	0.814575	0.725839
1302	H	0.84075	0.79804	0.685942
1303	C	0.780127	0.825584	0.681561
1304	H	0.766259	0.836718	0.664326
1305	H	0.806413	0.838788	0.66712
1306	H	0.78179	0.832593	0.716742
1307	C	0.796108	0.719629	0.673801
1308	H	0.787473	0.699921	0.70019
1309	H	0.823298	0.738707	0.681405
1310	C	0.704249	0.780687	0.994899
1311	H	0.677068	0.761604	0.987252
1312	H	0.712889	0.800424	0.96854
1313	C	0.734686	0.962916	0.995266
1314	C	0.770488	0.986049	0.983308
1315	C	0.786268	0.522817	0.991752
1316	C	0.765233	0.537175	0.673444
1317	C	0.72942	0.514042	0.685382
1318	C	0.713652	0.977269	0.676984
1319	C	0.825381	0.545501	0.987182
1320	H	0.838563	0.532375	0.001547
1321	H	0.836514	0.570469	0.004522
1322	H	0.832405	0.550924	0.952018
1323	C	0.790514	0.971612	0.959246
1324	H	0.77441	0.953926	0.93267
1325	H	0.797861	0.95739	0.982621
1326	H	0.814305	0.991165	0.942714
1327	C	0.709383	0.528502	0.709361
1328	H	0.725456	0.546172	0.735967
1329	H	0.685553	0.508967	0.725839
1330	H	0.702094	0.542747	0.685945
1331	C	0.674542	0.954574	0.681588
1332	H	0.663407	0.929561	0.66436
1333	H	0.661346	0.967655	0.667133
1334	H	0.66753	0.949235	0.716765
1335	C	0.780502	0.576506	0.673807
1336	H	0.800212	0.587578	0.700197
1337	H	0.761425	0.58462	0.681418
1338	C	0.719439	0.923587	0.994919
1339	H	0.738525	0.915492	0.987275
1340	H	0.699707	0.912494	0.968557
1341	C	0.53721	0.771795	0.995233
1342	C	0.514077	0.784466	0.983285
1343	C	0.977311	0.763476	0.991726
1344	C	0.962954	0.728086	0.673431
1345	C	0.986084	0.715407	0.685355
1346	C	0.522858	0.736405	0.676941
1347	C	0.954628	0.779908	0.987172
1348	H	0.967753	0.806212	0.001554
1349	H	0.92966	0.766072	0.004504
1350	H	0.949208	0.781526	0.952012
1351	C	0.528519	0.818936	0.959239
1352	H	0.546201	0.820522	0.932656
1353	H	0.542743	0.8405	0.982618
1354	H	0.508964	0.823181	0.942714
1355	C	0.971631	0.680914	0.709344
1356	H	0.953963	0.679316	0.735953
1357	H	0.991173	0.676623	0.725822
1358	H	0.957385	0.659375	0.685935
1359	C	0.545554	0.719993	0.681548
1360	H	0.570561	0.733866	0.66431
1361	H	0.532472	0.693711	0.66711
1362	H	0.550904	0.718333	0.716728
1363	C	0.923622	0.704023	0.673797
1364	H	0.912549	0.712661	0.700187
1365	H	0.915509	0.676833	0.681408
1366	C	0.57654	0.795876	0.994893
1367	H	0.584636	0.823056	0.987252
1368	H	0.587636	0.787238	0.968533
