data_C720H360N144O72_2018-02-15_10:35:36
#******************************************
#
# CIF file created by Zeo++
# Zeo++ is an open source package to
# analyze microporous materials
#
#*******************************************

_cell_length_a		46.4371   
_cell_length_b		46.4372   
_cell_length_c		29.6258   
_cell_angle_alpha		90   
_cell_angle_beta		90   
_cell_angle_gamma		120   

_symmetry_space_group_name_H-M		'P1'
_symmetry_Int_Tables_number		1
_symmetry_cell_setting		Monoclinic

loop_
_symmetry_equiv_pos_as_xyz
'+x,+y,+z'

loop_
_atom_site_label
_atom_site_type_symbol
_atom_site_fract_x
_atom_site_fract_y
_atom_site_fract_z
1	C	0.027538	0.265366	0.339832
2	C	0.046784	0.300997	0.339484
3	C	0.081938	0.319121	0.338549
4	C	0.099321	0.301399	0.338364
5	C	0.082099	0.266279	0.00515
6	C	0.046926	0.249131	0.006187
7	H	0.035626	0.315048	0.339383
8	O	0.133266	0.318442	0.338478
9	H	0.13977	0.321894	0.037144
10	H	0.03586	0.223929	0.006116
11	C	0.115657	0.247073	0.043645
12	N	0.145593	0.248387	0.042567
13	C	0.118279	0.251961	0.296584
14	C	0.100708	0.249678	0.336681
15	H	0.106886	0.249206	0.074396
16	H	0.111296	0.257541	0.266584
17	C	0.144055	0.400102	0.043546
18	N	0.115465	0.370144	0.042341
19	C	0.100428	0.35418	0.003328
20	N	0.11771	0.367898	0.298008
21	C	0.146331	0.397683	0.296481
22	C	0.027538	0.265366	0.673166
23	C	0.046784	0.300997	0.672819
24	C	0.081938	0.319121	0.67188
25	C	0.099321	0.301399	0.671698
26	C	0.082099	0.266279	0.338485
27	C	0.046926	0.249131	0.339521
28	H	0.035626	0.315048	0.672717
29	O	0.133266	0.318442	0.671809
30	H	0.13977	0.321894	0.370478
31	H	0.03586	0.223929	0.339451
32	C	0.115657	0.247073	0.376979
33	N	0.145593	0.248387	0.375902
34	C	0.118279	0.251961	0.629917
35	C	0.100708	0.249678	0.670014
36	H	0.106886	0.249206	0.407729
37	H	0.111296	0.257541	0.599916
38	C	0.144055	0.400102	0.376881
39	N	0.115465	0.370144	0.375676
40	C	0.100428	0.35418	0.336662
41	N	0.11771	0.367898	0.631341
42	C	0.146331	0.397683	0.629816
43	C	0.027538	0.265366	0.006498
44	C	0.046784	0.300997	0.006153
45	C	0.081938	0.319121	0.005215
46	C	0.099321	0.301399	0.005029
47	C	0.082099	0.266279	0.67182
48	C	0.046926	0.249131	0.672852
49	H	0.035626	0.315048	0.006052
50	O	0.133266	0.318442	0.005144
51	H	0.13977	0.321894	0.703812
52	H	0.03586	0.223929	0.672785
53	C	0.115657	0.247073	0.710313
54	N	0.145593	0.248387	0.709233
55	C	0.118279	0.251961	0.963251
56	C	0.100708	0.249678	0.003348
57	H	0.106886	0.249206	0.741063
58	H	0.111296	0.257541	0.93325
59	C	0.144055	0.400102	0.710212
60	N	0.115465	0.370144	0.709007
61	C	0.100428	0.35418	0.669997
62	N	0.11771	0.367898	0.964676
63	C	0.146331	0.397683	0.963147
64	C	0.027539	0.765367	0.339832
65	C	0.046783	0.800995	0.339484
66	C	0.081938	0.819122	0.338549
67	C	0.09932	0.801398	0.338364
68	C	0.082098	0.766277	0.00515
69	C	0.046928	0.749132	0.006187
70	H	0.035627	0.815049	0.339383
71	O	0.133265	0.818441	0.338478
72	H	0.139769	0.821892	0.037144
73	H	0.035861	0.723928	0.006116
74	C	0.115657	0.747073	0.043645
75	N	0.145594	0.748386	0.042567
76	C	0.118279	0.751959	0.296584
77	C	0.100707	0.749677	0.336681
78	H	0.106886	0.749204	0.074396
79	H	0.111297	0.757539	0.266584
80	C	0.144054	0.9001	0.043546
81	N	0.115464	0.870144	0.042341
82	C	0.100429	0.854178	0.003328
83	N	0.11771	0.867899	0.298008
84	C	0.146331	0.897681	0.296481
85	C	0.027539	0.765367	0.673166
86	C	0.046783	0.800995	0.672819
87	C	0.081938	0.819122	0.67188
88	C	0.09932	0.801398	0.671698
89	C	0.082098	0.766277	0.338485
90	C	0.046928	0.749132	0.339521
91	H	0.035627	0.815049	0.672717
92	O	0.133265	0.818441	0.671809
93	H	0.139769	0.821892	0.370478
94	H	0.035861	0.723928	0.339451
95	C	0.115657	0.747073	0.376979
96	N	0.145594	0.748386	0.375902
97	C	0.118279	0.751959	0.629917
98	C	0.100707	0.749677	0.670014
99	H	0.106886	0.749204	0.407729
100	H	0.111297	0.757539	0.599916
101	C	0.144054	0.9001	0.376881
102	N	0.115464	0.870144	0.375676
103	C	0.100429	0.854178	0.336662
104	N	0.11771	0.867899	0.631341
105	C	0.146331	0.897681	0.629816
106	C	0.027539	0.765367	0.006498
107	C	0.046783	0.800995	0.006153
108	C	0.081938	0.819122	0.005215
109	C	0.09932	0.801398	0.005029
110	C	0.082098	0.766277	0.67182
111	C	0.046928	0.749132	0.672852
112	H	0.035627	0.815049	0.006052
113	O	0.133265	0.818441	0.005144
114	H	0.139769	0.821892	0.703812
115	H	0.035861	0.723928	0.672785
116	C	0.115657	0.747073	0.710313
117	N	0.145594	0.748386	0.709233
118	C	0.118279	0.751959	0.963251
119	C	0.100707	0.749677	0.003348
120	H	0.106886	0.749204	0.741063
121	H	0.111297	0.757539	0.93325
122	C	0.144054	0.9001	0.710212
123	N	0.115464	0.870144	0.709007
124	C	0.100429	0.854178	0.669997
125	N	0.11771	0.867899	0.964676
126	C	0.146331	0.897681	0.963147
127	C	0.214766	0.248895	0.339467
128	C	0.196641	0.265931	0.338715
129	C	0.214376	0.301039	0.338752
130	H	0.200713	0.223686	0.339248
131	O	0.197344	0.31795	0.339056
132	H	0.193954	0.320971	0.037757
133	H	0.227077	0.197548	0.006065
134	C	0.214699	0.416509	0.338242
135	C	0.196816	0.433746	0.00511
136	C	0.21485	0.468913	0.00618
137	O	0.197781	0.382562	0.338323
138	H	0.226869	0.032482	0.339447
139	H	0.194782	0.376039	0.036982
140	H	0.200719	0.479984	0.006123
141	C	0.161565	0.249358	0.003571
142	N	0.148029	0.25305	0.298164
143	C	0.161608	0.415158	0.336629
144	H	0.154945	0.408795	0.074324
145	H	0.158891	0.404732	0.266483
146	C	0.214766	0.248895	0.672802
147	C	0.196641	0.265931	0.672049
148	C	0.214376	0.301039	0.672083
149	H	0.200713	0.223686	0.672582
150	O	0.197344	0.31795	0.67239
151	H	0.193954	0.320971	0.371092
152	H	0.227077	0.197548	0.3394
153	C	0.214699	0.416509	0.671576
154	C	0.196816	0.433746	0.338441
155	C	0.21485	0.468913	0.339515
156	O	0.197781	0.382562	0.671657
157	H	0.226869	0.032482	0.672782
158	H	0.194782	0.376039	0.370316
159	H	0.200719	0.479984	0.339457
160	C	0.161565	0.249358	0.336905
161	N	0.148029	0.25305	0.631497
162	C	0.161608	0.415158	0.669963
163	H	0.154945	0.408795	0.407658
164	H	0.158891	0.404732	0.599818
165	C	0.214766	0.248895	0.006136
166	C	0.196641	0.265931	0.005383
167	C	0.214376	0.301039	0.005417
168	H	0.200713	0.223686	0.005917
169	O	0.197344	0.31795	0.005721
170	H	0.193954	0.320971	0.704423
171	H	0.227077	0.197548	0.672734
172	C	0.214699	0.416509	0.004911
173	C	0.196816	0.433746	0.671776
174	C	0.21485	0.468913	0.672849
175	O	0.197781	0.382562	0.004988
176	H	0.226869	0.032482	0.006112
177	H	0.194782	0.376039	0.70365
178	H	0.200719	0.479984	0.672788
179	C	0.161565	0.249358	0.67024
180	N	0.148029	0.25305	0.964831
181	C	0.161608	0.415158	0.003297
182	H	0.154945	0.408795	0.740992
183	H	0.158891	0.404732	0.933149
184	C	0.214767	0.748896	0.339467
185	C	0.196642	0.765931	0.338715
186	C	0.214376	0.801037	0.338752
187	H	0.200713	0.723684	0.339248
188	O	0.197343	0.817948	0.339056
189	H	0.193954	0.82097	0.037757
190	H	0.227077	0.697548	0.006065
191	C	0.214699	0.916507	0.338242
192	C	0.196815	0.933744	0.00511
193	C	0.214849	0.968912	0.00618
194	O	0.197781	0.882562	0.338323
195	H	0.22687	0.532481	0.339447
196	H	0.194782	0.87604	0.036982
197	H	0.20072	0.979984	0.006123
198	C	0.161564	0.749356	0.003571
199	N	0.148029	0.753048	0.298164
200	C	0.161608	0.915159	0.336629
201	H	0.154947	0.908796	0.074324
202	H	0.158893	0.904733	0.266483
203	C	0.214767	0.748896	0.672802
204	C	0.196642	0.765931	0.672049
205	C	0.214376	0.801037	0.672083
206	H	0.200713	0.723684	0.672582
207	O	0.197343	0.817948	0.67239
208	H	0.193954	0.82097	0.371092
209	H	0.227077	0.697548	0.3394
210	C	0.214699	0.916507	0.671576
211	C	0.196815	0.933744	0.338441
212	C	0.214849	0.968912	0.339515
213	O	0.197781	0.882562	0.671657
214	H	0.22687	0.532481	0.672782
215	H	0.194782	0.87604	0.370316
216	H	0.20072	0.979984	0.339457
217	C	0.161564	0.749356	0.336905
218	N	0.148029	0.753048	0.631497
219	C	0.161608	0.915159	0.669963
220	H	0.154947	0.908796	0.407658
221	H	0.158893	0.904733	0.599818
222	C	0.214767	0.748896	0.006136
223	C	0.196642	0.765931	0.005383
224	C	0.214376	0.801037	0.005417
225	H	0.200713	0.723684	0.005917
226	O	0.197343	0.817948	0.005721
227	H	0.193954	0.82097	0.704423
228	H	0.227077	0.697548	0.672734
229	C	0.214699	0.916507	0.004911
230	C	0.196815	0.933744	0.671776
231	C	0.214849	0.968912	0.672849
232	O	0.197781	0.882562	0.004988
233	H	0.22687	0.532481	0.006112
234	H	0.194782	0.87604	0.70365
235	H	0.20072	0.979984	0.672788
236	C	0.161564	0.749356	0.67024
237	N	0.148029	0.753048	0.964831
238	C	0.161608	0.915159	0.003297
239	H	0.154947	0.908796	0.740992
240	H	0.158893	0.904733	0.933149
241	C	0.250396	0.265272	0.339781
242	C	0.249498	0.318925	0.005343
243	C	0.266638	0.300895	0.006173
244	C	0.268518	0.247304	0.339765
245	C	0.252279	0.211683	0.006156
246	C	0.269422	0.193656	0.005228
247	H	0.29184	0.315026	0.006062
248	C	0.250472	0.488286	0.339866
249	C	0.266845	0.46903	0.339535
250	C	0.249805	0.433877	0.338455
251	H	0.292055	0.48018	0.339491
252	C	0.268453	0.024375	0.339886
253	C	0.269121	0.078786	0.33858
254	C	0.25208	0.043631	0.339559
255	C	0.268775	0.371917	0.043727
256	N	0.267437	0.400517	0.042364
257	C	0.266358	0.415372	0.003264
258	N	0.262622	0.397894	0.298085
259	C	0.263754	0.369256	0.296765
260	C	0.266124	0.354128	0.337006
261	H	0.266677	0.361157	0.074577
262	H	0.258165	0.356597	0.266838
263	C	0.250221	0.140856	0.043696
264	N	0.251581	0.112264	0.042412
265	C	0.252571	0.097293	0.003361
266	N	0.256197	0.114638	0.298071
267	C	0.255048	0.143267	0.296577
268	C	0.252807	0.158438	0.336801
269	H	0.252391	0.15172	0.074487
270	H	0.260597	0.155877	0.266615
271	C	0.250396	0.265272	0.673116
272	C	0.249498	0.318925	0.338674
273	C	0.266638	0.300895	0.339508
274	C	0.268518	0.247304	0.673099
275	C	0.252279	0.211683	0.339491
276	C	0.269422	0.193656	0.338559
277	H	0.29184	0.315026	0.339397
278	C	0.250472	0.488286	0.6732
279	C	0.266845	0.46903	0.672866
280	C	0.249805	0.433877	0.671789
281	H	0.292055	0.48018	0.672825
282	C	0.268453	0.024375	0.67322
283	C	0.269121	0.078786	0.671911
284	C	0.25208	0.043631	0.672893
285	C	0.268775	0.371917	0.37706
286	N	0.267437	0.400517	0.375696
287	C	0.266358	0.415372	0.336597
288	N	0.262622	0.397894	0.631419
289	C	0.263754	0.369256	0.630099
290	C	0.266124	0.354128	0.670341
291	H	0.266677	0.361157	0.407911
292	H	0.258165	0.356597	0.600173
293	C	0.250221	0.140856	0.377029
294	N	0.251581	0.112264	0.375747
295	C	0.252571	0.097293	0.336694
296	N	0.256197	0.114638	0.631405
297	C	0.255048	0.143267	0.62991
298	C	0.252807	0.158438	0.670135
299	H	0.252391	0.15172	0.40782
300	H	0.260597	0.155877	0.59995
301	C	0.250396	0.265272	0.006448
302	C	0.249498	0.318925	0.672009
303	C	0.266638	0.300895	0.672839
304	C	0.268518	0.247304	0.006432
305	C	0.252279	0.211683	0.672825
306	C	0.269422	0.193656	0.671894
307	H	0.29184	0.315026	0.672728
308	C	0.250472	0.488286	0.006533
309	C	0.266845	0.46903	0.0062
310	C	0.249805	0.433877	0.00512
311	H	0.292055	0.48018	0.00616
312	C	0.268453	0.024375	0.006552
313	C	0.269121	0.078786	0.005245
314	C	0.25208	0.043631	0.006227
315	C	0.268775	0.371917	0.710394
316	N	0.267437	0.400517	0.70903
317	C	0.266358	0.415372	0.669929
318	N	0.262622	0.397894	0.964753
319	C	0.263754	0.369256	0.963433
320	C	0.266124	0.354128	0.003672
321	H	0.266677	0.361157	0.741242
322	H	0.258165	0.356597	0.933507
323	C	0.250221	0.140856	0.710364
324	N	0.251581	0.112264	0.709078
325	C	0.252571	0.097293	0.670027
326	N	0.256197	0.114638	0.96474
327	C	0.255048	0.143267	0.963244
328	C	0.252807	0.158438	0.003469
329	H	0.252391	0.15172	0.741154
330	H	0.260597	0.155877	0.933281
331	C	0.250397	0.765273	0.339781
332	C	0.249498	0.818923	0.005343
333	C	0.266638	0.800893	0.006173
334	C	0.268519	0.747304	0.339765
335	C	0.252279	0.711682	0.006156
336	C	0.269423	0.693656	0.005228
337	H	0.291841	0.815027	0.006062
338	C	0.250472	0.988285	0.339866
339	C	0.266846	0.969031	0.339535
340	C	0.249805	0.933878	0.338455
341	H	0.292056	0.980181	0.339491
342	C	0.268452	0.524374	0.339886
343	C	0.269122	0.578786	0.33858
344	C	0.252079	0.54363	0.339559
345	C	0.268776	0.871917	0.043727
346	N	0.267438	0.900518	0.042364
347	C	0.266357	0.91537	0.003264
348	N	0.262623	0.897895	0.298085
349	C	0.263754	0.869254	0.296765
350	C	0.266124	0.854126	0.337006
351	H	0.266677	0.861155	0.074577
352	H	0.258165	0.856595	0.266838
353	C	0.250222	0.640856	0.043696
354	N	0.251581	0.612263	0.042412
355	C	0.252572	0.597293	0.003361
356	N	0.256198	0.614637	0.298071
357	C	0.255049	0.643268	0.296577
358	C	0.252807	0.658439	0.336801
359	H	0.252392	0.65172	0.074487
360	H	0.260598	0.655878	0.266615
361	C	0.250397	0.765273	0.673116
362	C	0.249498	0.818923	0.338674
363	C	0.266638	0.800893	0.339508
364	C	0.268519	0.747304	0.673099
365	C	0.252279	0.711682	0.339491
366	C	0.269423	0.693656	0.338559
367	H	0.291841	0.815027	0.339397
368	C	0.250472	0.988285	0.6732
369	C	0.266846	0.969031	0.672866
370	C	0.249805	0.933878	0.671789
371	H	0.292056	0.980181	0.672825
372	C	0.268452	0.524374	0.67322
373	C	0.269122	0.578786	0.671911
374	C	0.252079	0.54363	0.672893
375	C	0.268776	0.871917	0.37706
376	N	0.267438	0.900518	0.375696
377	C	0.266357	0.91537	0.336597
378	N	0.262623	0.897895	0.631419
379	C	0.263754	0.869254	0.630099
380	C	0.266124	0.854126	0.670341
381	H	0.266677	0.861155	0.407911
382	H	0.258165	0.856595	0.600173
383	C	0.250222	0.640856	0.377029
384	N	0.251581	0.612263	0.375747
385	C	0.252572	0.597293	0.336694
386	N	0.256198	0.614637	0.631405
387	C	0.255049	0.643268	0.62991
388	C	0.252807	0.658439	0.670135
389	H	0.252392	0.65172	0.40782
390	H	0.260598	0.655878	0.59995
391	C	0.250397	0.765273	0.006448
392	C	0.249498	0.818923	0.672009
393	C	0.266638	0.800893	0.672839
394	C	0.268519	0.747304	0.006432
395	C	0.252279	0.711682	0.672825
396	C	0.269423	0.693656	0.671894
397	H	0.291841	0.815027	0.672728
398	C	0.250472	0.988285	0.006533
399	C	0.266846	0.969031	0.0062
400	C	0.249805	0.933878	0.00512
401	H	0.292056	0.980181	0.00616
402	C	0.268452	0.524374	0.006552
403	C	0.269122	0.578786	0.005245
404	C	0.252079	0.54363	0.006227
405	C	0.268776	0.871917	0.710394
406	N	0.267438	0.900518	0.70903
407	C	0.266357	0.91537	0.669929
408	N	0.262623	0.897895	0.964753
409	C	0.263754	0.869254	0.963433
410	C	0.266124	0.854126	0.003672
411	H	0.266677	0.861155	0.741242
412	H	0.258165	0.856595	0.933507
413	C	0.250222	0.640856	0.710364
414	N	0.251581	0.612263	0.709078
415	C	0.252572	0.597293	0.670027
416	N	0.256198	0.614637	0.96474
417	C	0.255049	0.643268	0.963244
418	C	0.252807	0.658439	0.003469
419	H	0.252392	0.65172	0.741154
420	H	0.260598	0.655878	0.933281
421	C	0.491447	0.247254	0.339842
422	C	0.472067	0.263496	0.006187
423	C	0.436896	0.246358	0.005248
424	C	0.419663	0.211238	0.338485
425	C	0.437039	0.193506	0.338613
426	C	0.472197	0.211625	0.339521
427	O	0.385719	0.194206	0.3386
428	H	0.483353	0.197571	0.339383
429	H	0.379216	0.190738	0.037267
430	H	0.483134	0.288698	0.006082
431	C	0.304543	0.211547	0.338512
432	C	0.322274	0.246653	0.338597
433	C	0.304149	0.263685	0.33943
434	O	0.321579	0.194637	0.338691
435	H	0.318202	0.288894	0.339275
436	H	0.325024	0.191612	0.037371
437	C	0.304075	0.043749	0.006214
438	C	0.32211	0.078917	0.005225
439	C	0.304228	0.096155	0.338418
440	O	0.321147	0.1301	0.338522
441	H	0.324172	0.136606	0.037186
442	H	0.318204	0.032676	0.006123
443	C	0.403221	0.265456	0.043661
444	N	0.373276	0.264111	0.042429
445	C	0.357333	0.263208	0.003405
446	N	0.371067	0.259645	0.298097
447	C	0.400844	0.260788	0.296596
448	C	0.418303	0.262974	0.336758
449	H	0.411899	0.26325	0.074446
450	H	0.407908	0.255286	0.266604
451	C	0.374886	0.112557	0.043641
452	N	0.403494	0.142497	0.042421
453	C	0.418535	0.158448	0.003402
454	N	0.401235	0.144732	0.29809
455	C	0.372594	0.114964	0.296577
456	C	0.357318	0.097501	0.336734
457	H	0.363999	0.103873	0.074425
458	H	0.360026	0.107916	0.266585
459	C	0.491447	0.247254	0.673176
460	C	0.472067	0.263496	0.339521
461	C	0.436896	0.246358	0.338583
462	C	0.419663	0.211238	0.67182
463	C	0.437039	0.193506	0.671948
464	C	0.472197	0.211625	0.672856
465	O	0.385719	0.194206	0.671934
466	H	0.483353	0.197571	0.672714
467	H	0.379216	0.190738	0.370599
468	H	0.483134	0.288698	0.339417
469	C	0.304543	0.211547	0.671847
470	C	0.322274	0.246653	0.671928
471	C	0.304149	0.263685	0.672765
472	O	0.321579	0.194637	0.672025
473	H	0.318202	0.288894	0.672609
474	H	0.325024	0.191612	0.370704
475	C	0.304075	0.043749	0.339548
476	C	0.32211	0.078917	0.338559
477	C	0.304228	0.096155	0.671752
478	O	0.321147	0.1301	0.671857
479	H	0.324172	0.136606	0.370521
480	H	0.318204	0.032676	0.339454
481	C	0.403221	0.265456	0.376996
482	N	0.373276	0.264111	0.375764
483	C	0.357333	0.263208	0.336738
484	N	0.371067	0.259645	0.631429
485	C	0.400844	0.260788	0.62993
486	C	0.418303	0.262974	0.670091
487	H	0.411899	0.26325	0.40778
488	H	0.407908	0.255286	0.599936
489	C	0.374886	0.112557	0.376975
490	N	0.403494	0.142497	0.375753
491	C	0.418535	0.158448	0.336735
492	N	0.401235	0.144732	0.631422
493	C	0.372594	0.114964	0.62991
494	C	0.357318	0.097501	0.670068
495	H	0.363999	0.103873	0.407759
496	H	0.360026	0.107916	0.599919
497	C	0.491447	0.247254	0.00651
498	C	0.472067	0.263496	0.672852
499	C	0.436896	0.246358	0.671914
500	C	0.419663	0.211238	0.005154
501	C	0.437039	0.193506	0.005282
502	C	0.472197	0.211625	0.00619
503	O	0.385719	0.194206	0.005269
504	H	0.483353	0.197571	0.006048
505	H	0.379216	0.190738	0.703933
506	H	0.483134	0.288698	0.672751
507	C	0.304543	0.211547	0.005177
508	C	0.322274	0.246653	0.005262
509	C	0.304149	0.263685	0.006096
510	O	0.321579	0.194637	0.00536
511	H	0.318202	0.288894	0.00594
512	H	0.325024	0.191612	0.704038
513	C	0.304075	0.043749	0.672883
514	C	0.32211	0.078917	0.67189
515	C	0.304228	0.096155	0.005086
516	O	0.321147	0.1301	0.005188
517	H	0.324172	0.136606	0.703852
518	H	0.318204	0.032676	0.672788
519	C	0.403221	0.265456	0.710326
520	N	0.373276	0.264111	0.709094
521	C	0.357333	0.263208	0.670071
522	N	0.371067	0.259645	0.964763
523	C	0.400844	0.260788	0.963261
524	C	0.418303	0.262974	0.003426
525	H	0.411899	0.26325	0.741114
526	H	0.407908	0.255286	0.933271
527	C	0.374886	0.112557	0.71031
528	N	0.403494	0.142497	0.709088
529	C	0.418535	0.158448	0.670068
530	N	0.401235	0.144732	0.964757
531	C	0.372594	0.114964	0.963244
532	C	0.357318	0.097501	0.003402
533	H	0.363999	0.103873	0.74109
534	H	0.360026	0.107916	0.933254
535	C	0.491449	0.747255	0.339842
536	C	0.472066	0.763495	0.006187
537	C	0.436895	0.746357	0.005248
538	C	0.419665	0.711239	0.338485
539	C	0.437041	0.693507	0.338613
540	C	0.472197	0.711624	0.339521
541	O	0.385719	0.694206	0.3386
542	H	0.483353	0.69757	0.339383
543	H	0.379215	0.690737	0.037267
544	H	0.483135	0.788699	0.006082
545	C	0.304544	0.711547	0.338512
546	C	0.322274	0.746653	0.338597
547	C	0.30415	0.763686	0.33943
548	O	0.321578	0.694636	0.338691
549	H	0.318203	0.788895	0.339275
550	H	0.325024	0.691612	0.037371
551	C	0.304074	0.543747	0.006214
552	C	0.322111	0.578918	0.005225
553	C	0.304228	0.596155	0.338418
554	O	0.321146	0.630099	0.338522
555	H	0.324173	0.636606	0.037186
556	H	0.318204	0.532675	0.006123
557	C	0.403223	0.765457	0.043661
558	N	0.373276	0.764109	0.042429
559	C	0.357334	0.763209	0.003405
560	N	0.371069	0.759645	0.298097
561	C	0.400845	0.760789	0.296596
562	C	0.418302	0.762972	0.336758
563	H	0.4119	0.763248	0.074446
564	H	0.407907	0.755284	0.266604
565	C	0.374886	0.612556	0.043641
566	N	0.403494	0.642497	0.042421
567	C	0.418535	0.658449	0.003402
568	N	0.401235	0.644733	0.29809
569	C	0.372595	0.614963	0.296577
570	C	0.357319	0.5975	0.336733
571	H	0.364001	0.603873	0.074425
572	H	0.360028	0.607916	0.266585
573	C	0.491449	0.747255	0.673176
574	C	0.472066	0.763495	0.339521
575	C	0.436895	0.746357	0.338583
576	C	0.419665	0.711239	0.67182
577	C	0.437041	0.693507	0.671948
578	C	0.472197	0.711624	0.672856
579	O	0.385719	0.694206	0.671934
580	H	0.483353	0.69757	0.672714
581	H	0.379215	0.690737	0.370599
582	H	0.483135	0.788699	0.339417
583	C	0.304544	0.711547	0.671847
584	C	0.322274	0.746653	0.671928
585	C	0.30415	0.763686	0.672765
586	O	0.321578	0.694636	0.672025
587	H	0.318203	0.788895	0.672609
588	H	0.325024	0.691612	0.370704
589	C	0.304074	0.543747	0.339548
590	C	0.322111	0.578918	0.338559
591	C	0.304228	0.596155	0.671752
592	O	0.321146	0.630099	0.671857
593	H	0.324173	0.636606	0.370521
594	H	0.318204	0.532675	0.339454
595	C	0.403223	0.765457	0.376996
596	N	0.373276	0.764109	0.375764
597	C	0.357334	0.763209	0.336738
598	N	0.371069	0.759645	0.631429
599	C	0.400845	0.760789	0.62993
600	C	0.418302	0.762972	0.670091
601	H	0.4119	0.763248	0.40778
602	H	0.407907	0.755284	0.599936
603	C	0.374886	0.612556	0.376975
604	N	0.403494	0.642497	0.375753
605	C	0.418535	0.658449	0.336735
606	N	0.401235	0.644733	0.631422
607	C	0.372595	0.614963	0.62991
608	C	0.357319	0.5975	0.670068
609	H	0.364001	0.603873	0.407759
610	H	0.360028	0.607916	0.599919
611	C	0.491449	0.747255	0.00651
612	C	0.472066	0.763495	0.672852
613	C	0.436895	0.746357	0.671914
614	C	0.419665	0.711239	0.005154
615	C	0.437041	0.693507	0.005282
616	C	0.472197	0.711624	0.00619
617	O	0.385719	0.694206	0.005269
618	H	0.483353	0.69757	0.006048
619	H	0.379215	0.690737	0.703933
620	H	0.483135	0.788699	0.672751
621	C	0.304544	0.711547	0.005177
622	C	0.322274	0.746653	0.005262
623	C	0.30415	0.763686	0.006096
624	O	0.321578	0.694636	0.00536
625	H	0.318203	0.788895	0.00594
626	H	0.325024	0.691612	0.704038
627	C	0.304074	0.543747	0.672883
628	C	0.322111	0.578918	0.67189
629	C	0.304228	0.596155	0.005086
630	O	0.321146	0.630099	0.005188
631	H	0.324173	0.636606	0.703852
632	H	0.318204	0.532675	0.672788
633	C	0.403223	0.765457	0.710326
634	N	0.373276	0.764109	0.709094
635	C	0.357334	0.763209	0.670071
636	N	0.371069	0.759645	0.964763
637	C	0.400845	0.760789	0.963261
638	C	0.418302	0.762972	0.003426
639	H	0.4119	0.763248	0.741114
640	H	0.407907	0.755284	0.933271
641	C	0.374886	0.612556	0.71031
642	N	0.403494	0.642497	0.709088
643	C	0.418535	0.658449	0.670068
644	N	0.401235	0.644733	0.964757
645	C	0.372595	0.614963	0.963244
646	C	0.357319	0.5975	0.003402
647	H	0.364001	0.603873	0.74109
648	H	0.360028	0.607916	0.933254
649	C	0.527538	0.265366	0.339832
650	C	0.546783	0.300997	0.339484
651	C	0.581937	0.319121	0.338549
652	C	0.599322	0.301399	0.338364
653	C	0.5821	0.266279	0.00515
654	C	0.546926	0.249131	0.006187
655	H	0.535625	0.315048	0.339383
656	O	0.633267	0.318442	0.338478
657	C	0.991449	0.247254	0.339842
658	C	0.972066	0.263496	0.006187
659	C	0.936895	0.246358	0.005248
660	C	0.919665	0.211238	0.338485
661	C	0.937041	0.193506	0.338613
662	C	0.972198	0.211625	0.339521
663	O	0.885718	0.194206	0.3386
664	H	0.983352	0.197571	0.339383
665	H	0.639769	0.321894	0.037144
666	H	0.879215	0.190738	0.037267
667	H	0.535861	0.223929	0.006116
668	H	0.983133	0.288698	0.006082
669	C	0.750397	0.265272	0.339781
670	C	0.714767	0.248895	0.339467
671	C	0.696642	0.265931	0.338715
672	C	0.714377	0.301039	0.338752
673	C	0.749497	0.318925	0.005343
674	C	0.766638	0.300895	0.006173
675	H	0.700713	0.223686	0.339248
676	O	0.697345	0.31795	0.339056
677	C	0.768518	0.247304	0.339765
678	C	0.75228	0.211683	0.006156
679	C	0.769422	0.193656	0.005228
680	C	0.804543	0.211547	0.338512
681	C	0.822274	0.246653	0.338597
682	C	0.804148	0.263685	0.33943
683	O	0.821578	0.194637	0.338691
684	H	0.818202	0.288894	0.339275
685	H	0.693954	0.320971	0.037757
686	H	0.825023	0.191612	0.037371
687	H	0.79184	0.315026	0.006062
688	H	0.727078	0.197548	0.006065
689	C	0.750472	0.488286	0.339866
690	C	0.766844	0.46903	0.339535
691	C	0.749806	0.433877	0.338455
692	C	0.714699	0.416509	0.338242
693	C	0.696815	0.433746	0.00511
694	C	0.714851	0.468913	0.00618
695	H	0.792054	0.48018	0.339491
696	O	0.697781	0.382562	0.338323
697	C	0.768452	0.024375	0.339886
698	C	0.804074	0.043749	0.006214
699	C	0.822111	0.078917	0.005225
700	C	0.804227	0.096155	0.338418
701	C	0.769122	0.078786	0.33858
702	C	0.752079	0.043631	0.339559
703	O	0.821146	0.1301	0.338522
704	H	0.726869	0.032482	0.339447
705	H	0.694781	0.376039	0.036982
706	H	0.824173	0.136606	0.037186
707	H	0.700719	0.479984	0.006123
708	H	0.818203	0.032676	0.006123
709	C	0.615658	0.247073	0.043645
710	N	0.645594	0.248387	0.042567
711	C	0.661564	0.249358	0.003571
712	N	0.648029	0.25305	0.298164
713	C	0.618279	0.251961	0.296584
714	C	0.600707	0.249678	0.336681
715	H	0.606886	0.249206	0.074396
716	H	0.611297	0.257541	0.266584
717	C	0.768775	0.371917	0.043727
718	N	0.767437	0.400517	0.042364
719	C	0.766358	0.415372	0.003264
720	N	0.762622	0.397894	0.298085
721	C	0.763754	0.369256	0.296765
722	C	0.766123	0.354128	0.337006
723	H	0.766677	0.361157	0.074577
724	H	0.758165	0.356597	0.266838
725	C	0.644054	0.400102	0.043546
726	N	0.615465	0.370144	0.042341
727	C	0.600428	0.35418	0.003328
728	N	0.61771	0.367898	0.298008
729	C	0.646331	0.397683	0.296481
730	C	0.661609	0.415158	0.336629
731	H	0.654945	0.408795	0.074324
732	H	0.658892	0.404732	0.266483
733	C	0.903222	0.265456	0.043661
734	N	0.873275	0.264111	0.042429
735	C	0.857334	0.263208	0.003405
736	N	0.871068	0.259645	0.298097
737	C	0.900845	0.260788	0.296596
738	C	0.918302	0.262974	0.336758
739	H	0.9119	0.26325	0.074446
740	H	0.907907	0.255286	0.266604
741	C	0.750221	0.140856	0.043696
742	N	0.751582	0.112264	0.042412
743	C	0.752571	0.097293	0.003361
744	N	0.756198	0.114638	0.298071
745	C	0.755049	0.143267	0.296577
746	C	0.752806	0.158438	0.336801
747	H	0.75239	0.15172	0.074487
748	H	0.760598	0.155877	0.266615
749	C	0.874887	0.112557	0.043641
750	N	0.903493	0.142497	0.042421
751	C	0.918534	0.158448	0.003402
752	N	0.901234	0.144732	0.29809
753	C	0.872596	0.114964	0.296577
754	C	0.857319	0.097501	0.336734
755	H	0.864001	0.103873	0.074425
756	H	0.860027	0.107916	0.266585
757	C	0.527538	0.265366	0.673166
758	C	0.546783	0.300997	0.672819
759	C	0.581937	0.319121	0.67188
760	C	0.599322	0.301399	0.671698
761	C	0.5821	0.266279	0.338485
762	C	0.546926	0.249131	0.339521
763	H	0.535625	0.315048	0.672717
764	O	0.633267	0.318442	0.671809
765	C	0.991449	0.247254	0.673176
766	C	0.972066	0.263496	0.339521
767	C	0.936895	0.246358	0.338583
768	C	0.919665	0.211238	0.67182
769	C	0.937041	0.193506	0.671948
770	C	0.972198	0.211625	0.672856
771	O	0.885718	0.194206	0.671934
772	H	0.983352	0.197571	0.672714
773	H	0.639769	0.321894	0.370478
774	H	0.879215	0.190738	0.370599
775	H	0.535861	0.223929	0.339451
776	H	0.983133	0.288698	0.339417
777	C	0.750397	0.265272	0.673116
778	C	0.714767	0.248895	0.672802
779	C	0.696642	0.265931	0.672049
780	C	0.714377	0.301039	0.672083
781	C	0.749497	0.318925	0.338674
782	C	0.766638	0.300895	0.339508
783	H	0.700713	0.223686	0.672582
784	O	0.697345	0.31795	0.67239
785	C	0.768518	0.247304	0.673099
786	C	0.75228	0.211683	0.339491
787	C	0.769422	0.193656	0.338559
788	C	0.804543	0.211547	0.671847
789	C	0.822274	0.246653	0.671928
790	C	0.804148	0.263685	0.672765
791	O	0.821578	0.194637	0.672025
792	H	0.818202	0.288894	0.672609
793	H	0.693954	0.320971	0.371092
794	H	0.825023	0.191612	0.370704
795	H	0.79184	0.315026	0.339397
796	H	0.727078	0.197548	0.3394
797	C	0.750472	0.488286	0.6732
798	C	0.766844	0.46903	0.672866
799	C	0.749806	0.433877	0.671789
800	C	0.714699	0.416509	0.671576
801	C	0.696815	0.433746	0.338441
802	C	0.714851	0.468913	0.339515
803	H	0.792054	0.48018	0.672825
804	O	0.697781	0.382562	0.671657
805	C	0.768452	0.024375	0.67322
806	C	0.804074	0.043749	0.339548
807	C	0.822111	0.078917	0.338559
808	C	0.804227	0.096155	0.671752
809	C	0.769122	0.078786	0.671911
810	C	0.752079	0.043631	0.672893
811	O	0.821146	0.1301	0.671857
812	H	0.726869	0.032482	0.672782
813	H	0.694781	0.376039	0.370316
814	H	0.824173	0.136606	0.370521
815	H	0.700719	0.479984	0.339457
816	H	0.818203	0.032676	0.339454
817	C	0.615658	0.247073	0.376979
818	N	0.645594	0.248387	0.375902
819	C	0.661564	0.249358	0.336905
820	N	0.648029	0.25305	0.631497
821	C	0.618279	0.251961	0.629917
822	C	0.600707	0.249678	0.670014
823	H	0.606886	0.249206	0.407729
824	H	0.611297	0.257541	0.599916
825	C	0.768775	0.371917	0.37706
826	N	0.767437	0.400517	0.375696
827	C	0.766358	0.415372	0.336597
828	N	0.762622	0.397894	0.631419
829	C	0.763754	0.369256	0.630099
830	C	0.766123	0.354128	0.670341
831	H	0.766677	0.361157	0.407911
832	H	0.758165	0.356597	0.600173
833	C	0.644054	0.400102	0.376881
834	N	0.615465	0.370144	0.375676
835	C	0.600428	0.35418	0.336662
836	N	0.61771	0.367898	0.631341
837	C	0.646331	0.397683	0.629816
838	C	0.661609	0.415158	0.669963
839	H	0.654945	0.408795	0.407658
840	H	0.658892	0.404732	0.599818
841	C	0.903222	0.265456	0.376996
842	N	0.873275	0.264111	0.375764
843	C	0.857334	0.263208	0.336738
844	N	0.871068	0.259645	0.631429
845	C	0.900845	0.260788	0.62993
846	C	0.918302	0.262974	0.670091
847	H	0.9119	0.26325	0.40778
848	H	0.907907	0.255286	0.599936
849	C	0.750221	0.140856	0.377029
850	N	0.751582	0.112264	0.375747
851	C	0.752571	0.097293	0.336694
852	N	0.756198	0.114638	0.631405
853	C	0.755049	0.143267	0.62991
854	C	0.752806	0.158438	0.670135
855	H	0.75239	0.15172	0.40782
856	H	0.760598	0.155877	0.59995
857	C	0.874887	0.112557	0.376975
858	N	0.903493	0.142497	0.375753
859	C	0.918534	0.158448	0.336735
860	N	0.901234	0.144732	0.631422
861	C	0.872596	0.114964	0.62991
862	C	0.857319	0.097501	0.670068
863	H	0.864001	0.103873	0.407759
864	H	0.860027	0.107916	0.599919
865	C	0.527538	0.265366	0.006498
866	C	0.546783	0.300997	0.006153
867	C	0.581937	0.319121	0.005215
868	C	0.599322	0.301399	0.005029
869	C	0.5821	0.266279	0.67182
870	C	0.546926	0.249131	0.672852
871	H	0.535625	0.315048	0.006052
872	O	0.633267	0.318442	0.005144
873	C	0.991449	0.247254	0.00651
874	C	0.972066	0.263496	0.672852
875	C	0.936895	0.246358	0.671914
876	C	0.919665	0.211238	0.005154
877	C	0.937041	0.193506	0.005282
878	C	0.972198	0.211625	0.00619
879	O	0.885718	0.194206	0.005269
880	H	0.983352	0.197571	0.006048
881	H	0.639769	0.321894	0.703812
882	H	0.879215	0.190738	0.703933
883	H	0.535861	0.223929	0.672785
884	H	0.983133	0.288698	0.672751
885	C	0.750397	0.265272	0.006448
886	C	0.714767	0.248895	0.006136
887	C	0.696642	0.265931	0.005383
888	C	0.714377	0.301039	0.005417
889	C	0.749497	0.318925	0.672009
890	C	0.766638	0.300895	0.672839
891	H	0.700713	0.223686	0.005917
892	O	0.697345	0.31795	0.005721
893	C	0.768518	0.247304	0.006432
894	C	0.75228	0.211683	0.672825
895	C	0.769422	0.193656	0.671894
896	C	0.804543	0.211547	0.005177
897	C	0.822274	0.246653	0.005262
898	C	0.804148	0.263685	0.006096
899	O	0.821578	0.194637	0.00536
900	H	0.818202	0.288894	0.00594
901	H	0.693954	0.320971	0.704423
902	H	0.825023	0.191612	0.704038
903	H	0.79184	0.315026	0.672728
904	H	0.727078	0.197548	0.672734
905	C	0.750472	0.488286	0.006533
906	C	0.766844	0.46903	0.0062
907	C	0.749806	0.433877	0.00512
908	C	0.714699	0.416509	0.004911
909	C	0.696815	0.433746	0.671776
910	C	0.714851	0.468913	0.672849
911	H	0.792054	0.48018	0.00616
912	O	0.697781	0.382562	0.004988
913	C	0.768452	0.024375	0.006552
914	C	0.804074	0.043749	0.672883
915	C	0.822111	0.078917	0.67189
916	C	0.804227	0.096155	0.005086
917	C	0.769122	0.078786	0.005245
918	C	0.752079	0.043631	0.006227
919	O	0.821146	0.1301	0.005188
920	H	0.726869	0.032482	0.006112
921	H	0.694781	0.376039	0.70365
922	H	0.824173	0.136606	0.703852
923	H	0.700719	0.479984	0.672788
924	H	0.818203	0.032676	0.672788
925	C	0.615658	0.247073	0.710313
926	N	0.645594	0.248387	0.709233
927	C	0.661564	0.249358	0.67024
928	N	0.648029	0.25305	0.964831
929	C	0.618279	0.251961	0.963251
930	C	0.600707	0.249678	0.003348
931	H	0.606886	0.249206	0.741063
932	H	0.611297	0.257541	0.93325
933	C	0.768775	0.371917	0.710394
934	N	0.767437	0.400517	0.70903
935	C	0.766358	0.415372	0.669929
936	N	0.762622	0.397894	0.964753
937	C	0.763754	0.369256	0.963433
938	C	0.766123	0.354128	0.003672
939	H	0.766677	0.361157	0.741242
940	H	0.758165	0.356597	0.933507
941	C	0.644054	0.400102	0.710212
942	N	0.615465	0.370144	0.709007
943	C	0.600428	0.35418	0.669997
944	N	0.61771	0.367898	0.964676
945	C	0.646331	0.397683	0.963147
946	C	0.661609	0.415158	0.003297
947	H	0.654945	0.408795	0.740992
948	H	0.658892	0.404732	0.933149
949	C	0.903222	0.265456	0.710326
950	N	0.873275	0.264111	0.709094
951	C	0.857334	0.263208	0.670071
952	N	0.871068	0.259645	0.964763
953	C	0.900845	0.260788	0.963261
954	C	0.918302	0.262974	0.003426
955	H	0.9119	0.26325	0.741114
956	H	0.907907	0.255286	0.933271
957	C	0.750221	0.140856	0.710364
958	N	0.751582	0.112264	0.709078
959	C	0.752571	0.097293	0.670027
960	N	0.756198	0.114638	0.96474
961	C	0.755049	0.143267	0.963244
962	C	0.752806	0.158438	0.003469
963	H	0.75239	0.15172	0.741154
964	H	0.760598	0.155877	0.933281
965	C	0.874887	0.112557	0.71031
966	N	0.903493	0.142497	0.709088
967	C	0.918534	0.158448	0.670068
968	N	0.901234	0.144732	0.964757
969	C	0.872596	0.114964	0.963244
970	C	0.857319	0.097501	0.003402
971	H	0.864001	0.103873	0.74109
972	H	0.860027	0.107916	0.933254
973	C	0.527539	0.765367	0.339832
974	C	0.546783	0.800995	0.339484
975	C	0.581939	0.819122	0.338549
976	C	0.59932	0.801398	0.338364
977	C	0.582098	0.766277	0.00515
978	C	0.546927	0.749132	0.006187
979	H	0.535627	0.815049	0.339383
980	O	0.633266	0.818441	0.338478
981	C	0.991449	0.747255	0.339842
982	C	0.972067	0.763495	0.006187
983	C	0.936895	0.746357	0.005248
984	C	0.919665	0.711239	0.338485
985	C	0.937041	0.693507	0.338613
986	C	0.972197	0.711624	0.339521
987	O	0.885718	0.694206	0.3386
988	H	0.983354	0.69757	0.339383
989	H	0.639768	0.821892	0.037144
990	H	0.879216	0.690737	0.037267
991	H	0.53586	0.723928	0.006116
992	H	0.983134	0.788699	0.006082
993	C	0.750397	0.765273	0.339781
994	C	0.714767	0.748896	0.339467
995	C	0.696642	0.765931	0.338715
996	C	0.714376	0.801037	0.338752
997	C	0.749499	0.818923	0.005343
998	C	0.766637	0.800893	0.006173
999	H	0.700712	0.723684	0.339248
1000	O	0.697344	0.817948	0.339056
1001	C	0.768518	0.747304	0.339765
1002	C	0.752279	0.711682	0.006156
1003	C	0.769422	0.693656	0.005228
1004	C	0.804545	0.711547	0.338512
1005	C	0.822274	0.746653	0.338597
1006	C	0.804151	0.763686	0.33943
1007	O	0.821577	0.694636	0.338691
1008	H	0.818202	0.788895	0.339275
1009	H	0.693953	0.82097	0.037757
1010	H	0.825025	0.691612	0.037371
1011	H	0.791841	0.815027	0.006062
1012	H	0.727078	0.697548	0.006065
1013	C	0.750471	0.988285	0.339866
1014	C	0.766847	0.969031	0.339535
1015	C	0.749807	0.933878	0.338455
1016	C	0.7147	0.916507	0.338242
1017	C	0.696816	0.933744	0.00511
1018	C	0.71485	0.968912	0.00618
1019	H	0.792057	0.980181	0.339491
1020	O	0.697782	0.882562	0.338323
1021	C	0.768451	0.524374	0.339886
1022	C	0.804074	0.543747	0.006214
1023	C	0.822111	0.578918	0.005225
1024	C	0.804227	0.596155	0.338418
1025	C	0.769122	0.578786	0.33858
1026	C	0.752078	0.54363	0.339559
1027	O	0.821146	0.630099	0.338522
1028	H	0.72687	0.532481	0.339447
1029	H	0.694783	0.87604	0.036982
1030	H	0.824173	0.636606	0.037186
1031	H	0.70072	0.979984	0.006123
1032	H	0.818205	0.532675	0.006123
1033	C	0.615658	0.747073	0.043645
1034	N	0.645593	0.748386	0.042567
1035	C	0.661564	0.749356	0.003571
1036	N	0.64803	0.753048	0.298164
1037	C	0.618278	0.751959	0.296584
1038	C	0.600708	0.749677	0.336681
1039	H	0.606887	0.749204	0.074396
1040	H	0.611296	0.757539	0.266584
1041	C	0.768775	0.871917	0.043727
1042	N	0.767437	0.900518	0.042364
1043	C	0.766358	0.91537	0.003264
1044	N	0.762622	0.897895	0.298085
1045	C	0.763753	0.869254	0.296765
1046	C	0.766125	0.854126	0.337006
1047	H	0.766676	0.861155	0.074577
1048	H	0.758164	0.856595	0.266838
1049	C	0.644055	0.9001	0.043546
1050	N	0.615466	0.870144	0.042341
1051	C	0.600428	0.854178	0.003328
1052	N	0.61771	0.867899	0.298008
1053	C	0.646331	0.897681	0.296481
1054	C	0.661609	0.915159	0.336629
1055	H	0.654946	0.908796	0.074324
1056	H	0.658892	0.904733	0.266483
1057	C	0.903222	0.765457	0.043661
1058	N	0.873277	0.764109	0.042429
1059	C	0.857335	0.763209	0.003405
1060	N	0.871069	0.759645	0.298097
1061	C	0.900846	0.760789	0.296596
1062	C	0.918301	0.762972	0.336758
1063	H	0.911899	0.763248	0.074446
1064	H	0.907906	0.755284	0.266604
1065	C	0.750221	0.640856	0.043696
1066	N	0.751582	0.612263	0.042412
1067	C	0.752571	0.597293	0.003361
1068	N	0.756198	0.614637	0.298071
1069	C	0.755049	0.643268	0.296577
1070	C	0.752808	0.658439	0.336801
1071	H	0.752392	0.65172	0.074487
1072	H	0.760598	0.655878	0.266615
1073	C	0.874887	0.612556	0.043641
1074	N	0.903493	0.642497	0.042421
1075	C	0.918534	0.658449	0.003402
1076	N	0.901236	0.644733	0.29809
1077	C	0.872595	0.614963	0.296577
1078	C	0.857319	0.5975	0.336733
1079	H	0.864001	0.603873	0.074425
1080	H	0.860027	0.607916	0.266585
1081	C	0.527539	0.765367	0.673166
1082	C	0.546783	0.800995	0.672819
1083	C	0.581939	0.819122	0.67188
1084	C	0.59932	0.801398	0.671698
1085	C	0.582098	0.766277	0.338485
1086	C	0.546927	0.749132	0.339521
1087	H	0.535627	0.815049	0.672717
1088	O	0.633266	0.818441	0.671809
1089	C	0.991449	0.747255	0.673176
1090	C	0.972067	0.763495	0.339521
1091	C	0.936895	0.746357	0.338583
1092	C	0.919665	0.711239	0.67182
1093	C	0.937041	0.693507	0.671948
1094	C	0.972197	0.711624	0.672856
1095	O	0.885718	0.694206	0.671934
1096	H	0.983354	0.69757	0.672714
1097	H	0.639768	0.821892	0.370478
1098	H	0.879216	0.690737	0.370599
1099	H	0.53586	0.723928	0.339451
1100	H	0.983134	0.788699	0.339417
1101	C	0.750397	0.765273	0.673116
1102	C	0.714767	0.748896	0.672802
1103	C	0.696642	0.765931	0.672049
1104	C	0.714376	0.801037	0.672083
1105	C	0.749499	0.818923	0.338674
1106	C	0.766637	0.800893	0.339508
1107	H	0.700712	0.723684	0.672582
1108	O	0.697344	0.817948	0.67239
1109	C	0.768518	0.747304	0.673099
1110	C	0.752279	0.711682	0.339491
1111	C	0.769422	0.693656	0.338559
1112	C	0.804545	0.711547	0.671847
1113	C	0.822274	0.746653	0.671928
1114	C	0.804151	0.763686	0.672765
1115	O	0.821577	0.694636	0.672025
1116	H	0.818202	0.788895	0.672609
1117	H	0.693953	0.82097	0.371092
1118	H	0.825025	0.691612	0.370704
1119	H	0.791841	0.815027	0.339397
1120	H	0.727078	0.697548	0.3394
1121	C	0.750471	0.988285	0.6732
1122	C	0.766847	0.969031	0.672866
1123	C	0.749807	0.933878	0.671789
1124	C	0.7147	0.916507	0.671576
1125	C	0.696816	0.933744	0.338441
1126	C	0.71485	0.968912	0.339515
1127	H	0.792057	0.980181	0.672825
1128	O	0.697782	0.882562	0.671657
1129	C	0.768451	0.524374	0.67322
1130	C	0.804074	0.543747	0.339548
1131	C	0.822111	0.578918	0.338559
1132	C	0.804227	0.596155	0.671752
1133	C	0.769122	0.578786	0.671911
1134	C	0.752078	0.54363	0.672893
1135	O	0.821146	0.630099	0.671857
1136	H	0.72687	0.532481	0.672782
1137	H	0.694783	0.87604	0.370316
1138	H	0.824173	0.636606	0.370521
1139	H	0.70072	0.979984	0.339457
1140	H	0.818205	0.532675	0.339454
1141	C	0.615658	0.747073	0.376979
1142	N	0.645593	0.748386	0.375902
1143	C	0.661564	0.749356	0.336905
1144	N	0.64803	0.753048	0.631497
1145	C	0.618278	0.751959	0.629917
1146	C	0.600708	0.749677	0.670014
1147	H	0.606887	0.749204	0.407729
1148	H	0.611296	0.757539	0.599916
1149	C	0.768775	0.871917	0.37706
1150	N	0.767437	0.900518	0.375696
1151	C	0.766358	0.91537	0.336597
1152	N	0.762622	0.897895	0.631419
1153	C	0.763753	0.869254	0.630099
1154	C	0.766125	0.854126	0.670341
1155	H	0.766676	0.861155	0.407911
1156	H	0.758164	0.856595	0.600173
1157	C	0.644055	0.9001	0.376881
1158	N	0.615466	0.870144	0.375676
1159	C	0.600428	0.854178	0.336662
1160	N	0.61771	0.867899	0.631341
1161	C	0.646331	0.897681	0.629816
1162	C	0.661609	0.915159	0.669963
1163	H	0.654946	0.908796	0.407658
1164	H	0.658892	0.904733	0.599818
1165	C	0.903222	0.765457	0.376996
1166	N	0.873277	0.764109	0.375764
1167	C	0.857335	0.763209	0.336738
1168	N	0.871069	0.759645	0.631429
1169	C	0.900846	0.760789	0.62993
1170	C	0.918301	0.762972	0.670091
1171	H	0.911899	0.763248	0.40778
1172	H	0.907906	0.755284	0.599936
1173	C	0.750221	0.640856	0.377029
1174	N	0.751582	0.612263	0.375747
1175	C	0.752571	0.597293	0.336694
1176	N	0.756198	0.614637	0.631405
1177	C	0.755049	0.643268	0.62991
1178	C	0.752808	0.658439	0.670135
1179	H	0.752392	0.65172	0.40782
1180	H	0.760598	0.655878	0.59995
1181	C	0.874887	0.612556	0.376975
1182	N	0.903493	0.642497	0.375753
1183	C	0.918534	0.658449	0.336735
1184	N	0.901236	0.644733	0.631422
1185	C	0.872595	0.614963	0.62991
1186	C	0.857319	0.5975	0.670068
1187	H	0.864001	0.603873	0.407759
1188	H	0.860027	0.607916	0.599919
1189	C	0.527539	0.765367	0.006498
1190	C	0.546783	0.800995	0.006153
1191	C	0.581939	0.819122	0.005215
1192	C	0.59932	0.801398	0.005029
1193	C	0.582098	0.766277	0.67182
1194	C	0.546927	0.749132	0.672852
1195	H	0.535627	0.815049	0.006052
1196	O	0.633266	0.818441	0.005144
1197	C	0.991449	0.747255	0.00651
1198	C	0.972067	0.763495	0.672852
1199	C	0.936895	0.746357	0.671914
1200	C	0.919665	0.711239	0.005154
1201	C	0.937041	0.693507	0.005282
1202	C	0.972197	0.711624	0.00619
1203	O	0.885718	0.694206	0.005269
1204	H	0.983354	0.69757	0.006048
1205	H	0.639768	0.821892	0.703812
1206	H	0.879216	0.690737	0.703933
1207	H	0.53586	0.723928	0.672785
1208	H	0.983134	0.788699	0.672751
1209	C	0.750397	0.765273	0.006448
1210	C	0.714767	0.748896	0.006136
1211	C	0.696642	0.765931	0.005383
1212	C	0.714376	0.801037	0.005417
1213	C	0.749499	0.818923	0.672009
1214	C	0.766637	0.800893	0.672839
1215	H	0.700712	0.723684	0.005917
1216	O	0.697344	0.817948	0.005721
1217	C	0.768518	0.747304	0.006432
1218	C	0.752279	0.711682	0.672825
1219	C	0.769422	0.693656	0.671894
1220	C	0.804545	0.711547	0.005177
1221	C	0.822274	0.746653	0.005262
1222	C	0.804151	0.763686	0.006096
1223	O	0.821577	0.694636	0.00536
1224	H	0.818202	0.788895	0.00594
1225	H	0.693953	0.82097	0.704423
1226	H	0.825025	0.691612	0.704038
1227	H	0.791841	0.815027	0.672728
1228	H	0.727078	0.697548	0.672734
1229	C	0.750471	0.988285	0.006533
1230	C	0.766847	0.969031	0.0062
1231	C	0.749807	0.933878	0.00512
1232	C	0.7147	0.916507	0.004911
1233	C	0.696816	0.933744	0.671776
1234	C	0.71485	0.968912	0.672849
1235	H	0.792057	0.980181	0.00616
1236	O	0.697782	0.882562	0.004988
1237	C	0.768451	0.524374	0.006552
1238	C	0.804074	0.543747	0.672883
1239	C	0.822111	0.578918	0.67189
1240	C	0.804227	0.596155	0.005086
1241	C	0.769122	0.578786	0.005245
1242	C	0.752078	0.54363	0.006227
1243	O	0.821146	0.630099	0.005188
1244	H	0.72687	0.532481	0.006112
1245	H	0.694783	0.87604	0.70365
1246	H	0.824173	0.636606	0.703852
1247	H	0.70072	0.979984	0.672788
1248	H	0.818205	0.532675	0.672788
1249	C	0.615658	0.747073	0.710313
1250	N	0.645593	0.748386	0.709233
1251	C	0.661564	0.749356	0.67024
1252	N	0.64803	0.753048	0.964831
1253	C	0.618278	0.751959	0.963251
1254	C	0.600708	0.749677	0.003348
1255	H	0.606887	0.749204	0.741063
1256	H	0.611296	0.757539	0.93325
1257	C	0.768775	0.871917	0.710394
1258	N	0.767437	0.900518	0.70903
1259	C	0.766358	0.91537	0.669929
1260	N	0.762622	0.897895	0.964753
1261	C	0.763753	0.869254	0.963433
1262	C	0.766125	0.854126	0.003672
1263	H	0.766676	0.861155	0.741242
1264	H	0.758164	0.856595	0.933507
1265	C	0.644055	0.9001	0.710212
1266	N	0.615466	0.870144	0.709007
1267	C	0.600428	0.854178	0.669997
1268	N	0.61771	0.867899	0.964676
1269	C	0.646331	0.897681	0.963147
1270	C	0.661609	0.915159	0.003297
1271	H	0.654946	0.908796	0.740992
1272	H	0.658892	0.904733	0.933149
1273	C	0.903222	0.765457	0.710326
1274	N	0.873277	0.764109	0.709094
1275	C	0.857335	0.763209	0.670071
1276	N	0.871069	0.759645	0.964763
1277	C	0.900846	0.760789	0.963261
1278	C	0.918301	0.762972	0.003426
1279	H	0.911899	0.763248	0.741114
1280	H	0.907906	0.755284	0.933271
1281	C	0.750221	0.640856	0.710364
1282	N	0.751582	0.612263	0.709078
1283	C	0.752571	0.597293	0.670027
1284	N	0.756198	0.614637	0.96474
1285	C	0.755049	0.643268	0.963244
1286	C	0.752808	0.658439	0.003469
1287	H	0.752392	0.65172	0.741154
1288	H	0.760598	0.655878	0.933281
1289	C	0.874887	0.612556	0.71031
1290	N	0.903493	0.642497	0.709088
1291	C	0.918534	0.658449	0.670068
1292	N	0.901236	0.644733	0.964757
1293	C	0.872595	0.614963	0.963244
1294	C	0.857319	0.5975	0.003402
1295	H	0.864001	0.603873	0.74109
1296	H	0.860027	0.607916	0.933254
