data_C396H288N144O72_2018-02-15_10:32:48
#******************************************
#
# CIF file created by Zeo++
# Zeo++ is an open source package to
# analyze microporous materials
#
#*******************************************

_cell_length_a		43.6264   
_cell_length_b		43.6264   
_cell_length_c		30.1076   
_cell_angle_alpha		90   
_cell_angle_beta		90   
_cell_angle_gamma		120   

_symmetry_space_group_name_H-M		'P1'
_symmetry_Int_Tables_number		1
_symmetry_cell_setting		Monoclinic

loop_
_symmetry_equiv_pos_as_xyz
'+x,+y,+z'

loop_
_atom_site_label
_atom_site_type_symbol
_atom_site_fract_x
_atom_site_fract_y
_atom_site_fract_z
1	C	0.173972	0.368312	0.95856
2	C	0.137981	0.341227	0.958088
3	C	0.127194	0.304762	0.958443
4	C	0.154287	0.295864	0.958045
5	C	0.190755	0.321543	0.291812
6	C	0.199664	0.357539	0.958058
7	H	0.147071	0.269838	0.960815
8	H	0.225677	0.376334	0.960987
9	H	0.119172	0.34844	0.960894
10	C	0.183132	0.404178	0.965352
11	C	0.217469	0.31239	0.29859
12	C	0.091326	0.27804	0.965172
13	O	0.251484	0.339038	0.969344
14	O	0.156484	0.411537	0.96952
15	O	0.083959	0.244024	0.969251
16	C	0.319087	0.127777	0.040006
17	C	0.355477	0.153613	0.039972
18	C	0.367771	0.190432	0.040023
19	C	0.341929	0.200982	0.039965
20	C	0.305108	0.176457	0.373378
21	C	0.294558	0.140065	0.039979
22	H	0.350358	0.227352	0.037451
23	H	0.268186	0.122126	0.037471
24	H	0.37342	0.145185	0.037422
25	C	0.307984	0.091221	0.035949
26	C	0.279654	0.187557	0.369309
27	C	0.404322	0.215883	0.035923
28	O	0.246108	0.163091	0.024236
29	O	0.33245	0.082138	0.024228
30	O	0.4134	0.249428	0.024186
31	C	0.231846	0.267278	0.321568
32	C	0.257484	0.286224	0.021291
33	C	0.276241	0.271553	0.042137
34	C	0.268361	0.23695	0.029269
35	N	0.242521	0.220204	0.331593
36	H	0.261507	0.310172	0.031875
37	N	0.225321	0.234021	0.312793
38	C	0.302596	0.292169	0.077257
39	H	0.304008	0.317377	0.084452
40	H	0.328884	0.297904	0.066796
41	H	0.295526	0.276884	0.108026
42	N	0.211686	0.278633	0.300428
43	H	0.191293	0.260526	0.284387
44	N	0.286826	0.221295	0.044134
45	H	0.307543	0.235783	0.062129
46	C	0.228264	0.463668	0.321646
47	C	0.209337	0.470362	0.021395
48	C	0.224011	0.0038	0.042219
49	C	0.258598	0.030527	0.029307
50	N	0.275327	0.021433	0.331605
51	H	0.185408	0.450439	0.032012
52	N	0.261506	0.490408	0.312824
53	C	0.203417	0.009532	0.077378
54	H	0.178234	0.985742	0.084609
55	H	0.19766	0.030078	0.066932
56	H	0.218742	0.017771	0.108128
57	N	0.216892	0.432152	0.300503
58	H	0.234986	0.429868	0.284426
59	N	0.274253	0.064653	0.044149
60	H	0.259771	0.070886	0.062149
61	C	0.031837	0.263671	0.321474
62	C	0.025143	0.23802	0.02118
63	C	0.491727	0.219289	0.042061
64	C	0.465005	0.227173	0.029203
65	N	0.474092	0.253	0.33151
66	H	0.045076	0.234025	0.0318
67	N	0.005103	0.270193	0.312699
68	C	0.486002	0.192962	0.077214
69	H	0.509798	0.191547	0.084401
70	H	0.465439	0.166667	0.066791
71	H	0.477809	0.200062	0.107979
72	N	0.063354	0.283826	0.300334
73	H	0.065646	0.304222	0.284299
74	N	0.430892	0.208717	0.044091
75	H	0.424665	0.188005	0.062095
76	C	0.173972	0.368312	0.291894
77	C	0.137981	0.341227	0.291423
78	C	0.127194	0.304762	0.291777
79	C	0.154287	0.295864	0.291377
80	C	0.190755	0.321543	0.625145
81	C	0.199664	0.357539	0.291393
82	H	0.147071	0.269838	0.294149
83	H	0.225677	0.376334	0.29432
84	H	0.119172	0.34844	0.294228
85	C	0.183132	0.404178	0.298687
86	C	0.217469	0.31239	0.631924
87	C	0.091326	0.27804	0.298506
88	O	0.251484	0.339038	0.302677
89	O	0.156484	0.411537	0.302855
90	O	0.083959	0.244024	0.302584
91	C	0.319087	0.127777	0.373338
92	C	0.355477	0.153613	0.373305
93	C	0.367771	0.190432	0.373355
94	C	0.341929	0.200982	0.373298
95	C	0.305108	0.176457	0.706709
96	C	0.294558	0.140065	0.373311
97	H	0.350358	0.227352	0.370784
98	H	0.268186	0.122126	0.370804
99	H	0.37342	0.145185	0.370754
100	C	0.307984	0.091221	0.369283
101	C	0.279654	0.187557	0.702641
102	C	0.404322	0.215883	0.369256
103	O	0.246108	0.163091	0.357568
104	O	0.33245	0.082138	0.357561
105	O	0.4134	0.249428	0.357518
106	C	0.231846	0.267278	0.654902
107	C	0.257484	0.286224	0.354625
108	C	0.276241	0.271553	0.37547
109	C	0.268361	0.23695	0.362603
110	N	0.242521	0.220204	0.664926
111	H	0.261507	0.310172	0.365207
112	N	0.225321	0.234021	0.646126
113	C	0.302596	0.292169	0.410591
114	H	0.304008	0.317377	0.417785
115	H	0.328884	0.297904	0.400129
116	H	0.295526	0.276884	0.441357
117	N	0.211686	0.278633	0.633761
118	H	0.191293	0.260526	0.617722
119	N	0.286826	0.221295	0.377467
120	H	0.307543	0.235783	0.395462
121	C	0.228264	0.463668	0.654978
122	C	0.209337	0.470362	0.354728
123	C	0.224011	0.0038	0.375553
124	C	0.258598	0.030527	0.36264
125	N	0.275327	0.021433	0.664939
126	H	0.185408	0.450439	0.365347
127	N	0.261506	0.490408	0.646156
128	C	0.203417	0.009532	0.410711
129	H	0.178234	0.985742	0.417941
130	H	0.19766	0.030078	0.400265
131	H	0.218742	0.017771	0.44146
132	N	0.216892	0.432152	0.633837
133	H	0.234986	0.429868	0.617758
134	N	0.274253	0.064653	0.377483
135	H	0.259771	0.070886	0.395482
136	C	0.031837	0.263671	0.654805
137	C	0.025143	0.23802	0.354512
138	C	0.491727	0.219289	0.375394
139	C	0.465005	0.227173	0.362537
140	N	0.474092	0.253	0.664843
141	H	0.045076	0.234025	0.365134
142	N	0.005103	0.270193	0.646033
143	C	0.486002	0.192962	0.410548
144	H	0.509798	0.191547	0.417732
145	H	0.465439	0.166667	0.400125
146	H	0.477809	0.200062	0.441311
147	N	0.063354	0.283826	0.633668
148	H	0.065646	0.304222	0.617632
149	N	0.430892	0.208717	0.377423
150	H	0.424665	0.188005	0.395429
151	C	0.173972	0.368312	0.625228
152	C	0.137981	0.341227	0.624756
153	C	0.127194	0.304762	0.625112
154	C	0.154287	0.295864	0.62471
155	C	0.190755	0.321543	0.958476
156	C	0.199664	0.357539	0.624727
157	H	0.147071	0.269838	0.627483
158	H	0.225677	0.376334	0.627653
159	H	0.119172	0.34844	0.62756
160	C	0.183132	0.404178	0.63202
161	C	0.217469	0.31239	0.965256
162	C	0.091326	0.27804	0.631838
163	O	0.251484	0.339038	0.636009
164	O	0.156484	0.411537	0.636189
165	O	0.083959	0.244024	0.635916
166	C	0.319087	0.127777	0.706673
167	C	0.355477	0.153613	0.70664
168	C	0.367771	0.190432	0.706689
169	C	0.341929	0.200982	0.70663
170	C	0.305108	0.176457	0.040045
171	C	0.294558	0.140065	0.706646
172	H	0.350358	0.227352	0.704115
173	H	0.268186	0.122126	0.704135
174	H	0.37342	0.145185	0.704089
175	C	0.307984	0.091221	0.702614
176	C	0.279654	0.187557	0.035975
177	C	0.404322	0.215883	0.702587
178	O	0.246108	0.163091	0.690903
179	O	0.33245	0.082138	0.690893
180	O	0.4134	0.249428	0.690853
181	C	0.231846	0.267278	0.988233
182	C	0.257484	0.286224	0.687957
183	C	0.276241	0.271553	0.708802
184	C	0.268361	0.23695	0.695935
185	N	0.242521	0.220204	0.99826
186	H	0.261507	0.310172	0.698542
187	N	0.225321	0.234021	0.979458
188	C	0.302596	0.292169	0.743922
189	H	0.304008	0.317377	0.751117
190	H	0.328884	0.297904	0.733463
191	H	0.295526	0.276884	0.774692
192	N	0.211686	0.278633	0.967096
193	H	0.191293	0.260526	0.951053
194	N	0.286826	0.221295	0.710801
195	H	0.307543	0.235783	0.728793
196	C	0.228264	0.463668	0.988313
197	C	0.209337	0.470362	0.688063
198	C	0.224011	0.0038	0.708885
199	C	0.258598	0.030527	0.695971
200	N	0.275327	0.021433	0.998272
201	H	0.185408	0.450439	0.698678
202	N	0.261506	0.490408	0.979491
203	C	0.203417	0.009532	0.744042
204	H	0.178234	0.985742	0.751276
205	H	0.19766	0.030078	0.7336
206	H	0.218742	0.017771	0.774795
207	N	0.216892	0.432152	0.967169
208	H	0.234986	0.429868	0.951093
209	N	0.274253	0.064653	0.710815
210	H	0.259771	0.070886	0.728817
211	C	0.031837	0.263671	0.98814
212	C	0.025143	0.23802	0.687847
213	C	0.491727	0.219289	0.708729
214	C	0.465005	0.227173	0.695868
215	N	0.474092	0.253	0.998177
216	H	0.045076	0.234025	0.698465
217	N	0.005103	0.270193	0.979365
218	C	0.486002	0.192962	0.743879
219	H	0.509798	0.191547	0.751067
220	H	0.465439	0.166667	0.733457
221	H	0.477809	0.200062	0.774646
222	N	0.063354	0.283826	0.966999
223	H	0.065646	0.304222	0.950963
224	N	0.430892	0.208717	0.710758
225	H	0.424665	0.188005	0.72876
226	C	0.173972	0.868312	0.95856
227	C	0.137982	0.841227	0.958088
228	C	0.127195	0.804763	0.958443
229	C	0.154286	0.795864	0.958045
230	C	0.190755	0.821543	0.291812
231	C	0.199663	0.85754	0.958058
232	H	0.14707	0.769838	0.960815
233	H	0.225677	0.876334	0.960987
234	H	0.119173	0.84844	0.960894
235	C	0.183133	0.904179	0.965352
236	C	0.217469	0.812391	0.29859
237	C	0.091327	0.778041	0.965172
238	O	0.251484	0.839039	0.969344
239	O	0.156484	0.911537	0.96952
240	O	0.083959	0.744024	0.969251
241	C	0.319087	0.627777	0.040006
242	C	0.355478	0.653612	0.039972
243	C	0.36777	0.690432	0.040023
244	C	0.341928	0.700982	0.039965
245	C	0.305108	0.676457	0.373378
246	C	0.294558	0.640066	0.039979
247	H	0.350358	0.727352	0.037451
248	H	0.268185	0.622126	0.037471
249	H	0.373418	0.645185	0.037422
250	C	0.307984	0.591222	0.035949
251	C	0.279654	0.687557	0.369309
252	C	0.404322	0.715883	0.035923
253	O	0.246108	0.66309	0.024236
254	O	0.332451	0.582138	0.024228
255	O	0.4134	0.749429	0.024186
256	C	0.231846	0.767279	0.321568
257	C	0.257484	0.786224	0.021291
258	C	0.276241	0.771553	0.042137
259	C	0.268361	0.736949	0.029269
260	N	0.242522	0.720205	0.331593
261	H	0.261507	0.810173	0.031875
262	N	0.225321	0.734022	0.312793
263	C	0.302596	0.792169	0.077257
264	H	0.304008	0.817377	0.084452
265	H	0.328884	0.797905	0.066796
266	H	0.295526	0.776884	0.108026
267	N	0.211686	0.778633	0.300428
268	H	0.191293	0.760527	0.284387
269	N	0.286826	0.721296	0.044134
270	H	0.307544	0.735785	0.062129
271	C	0.228265	0.963668	0.321646
272	C	0.209336	0.970362	0.021395
273	C	0.224012	0.503801	0.042219
274	C	0.258599	0.530528	0.029307
275	N	0.275328	0.521434	0.331606
276	H	0.185409	0.950439	0.032012
277	N	0.261506	0.990409	0.312824
278	C	0.203417	0.509531	0.077378
279	H	0.178234	0.485742	0.084609
280	H	0.19766	0.530078	0.066932
281	H	0.218741	0.517771	0.108128
282	N	0.216892	0.932153	0.300503
283	H	0.234986	0.929869	0.284426
284	N	0.274253	0.564653	0.044149
285	H	0.259772	0.570887	0.062149
286	C	0.031836	0.763671	0.321474
287	C	0.025143	0.738021	0.02118
288	C	0.491727	0.71929	0.042061
289	C	0.465004	0.727174	0.029203
290	N	0.474091	0.752999	0.33151
291	H	0.045078	0.734027	0.0318
292	N	0.005104	0.770193	0.312699
293	C	0.486003	0.692962	0.077214
294	H	0.509799	0.691549	0.084401
295	H	0.465438	0.666666	0.066791
296	H	0.477808	0.700061	0.107979
297	N	0.063353	0.783826	0.300334
298	H	0.065645	0.804223	0.284299
299	N	0.43089	0.708716	0.044091
300	H	0.424665	0.688005	0.062095
301	C	0.173972	0.868312	0.291894
302	C	0.137982	0.841227	0.291423
303	C	0.127195	0.804763	0.291777
304	C	0.154286	0.795864	0.291377
305	C	0.190755	0.821543	0.625145
306	C	0.199663	0.85754	0.291393
307	H	0.14707	0.769838	0.294149
308	H	0.225677	0.876334	0.29432
309	H	0.119173	0.84844	0.294228
310	C	0.183133	0.904179	0.298687
311	C	0.217469	0.812391	0.631924
312	C	0.091327	0.778041	0.298506
313	O	0.251484	0.839039	0.302677
314	O	0.156484	0.911537	0.302855
315	O	0.083959	0.744024	0.302584
316	C	0.319087	0.627777	0.373338
317	C	0.355478	0.653612	0.373305
318	C	0.36777	0.690432	0.373355
319	C	0.341928	0.700982	0.373298
320	C	0.305108	0.676457	0.706709
321	C	0.294558	0.640066	0.373311
322	H	0.350358	0.727352	0.370784
323	H	0.268185	0.622126	0.370804
324	H	0.373418	0.645185	0.370754
325	C	0.307984	0.591222	0.369283
326	C	0.279654	0.687557	0.702641
327	C	0.404322	0.715883	0.369256
328	O	0.246108	0.66309	0.357568
329	O	0.332451	0.582138	0.357561
330	O	0.4134	0.749429	0.357518
331	C	0.231846	0.767279	0.654902
332	C	0.257484	0.786224	0.354625
333	C	0.276241	0.771553	0.37547
334	C	0.268361	0.736949	0.362603
335	N	0.242522	0.720205	0.664926
336	H	0.261507	0.810173	0.365207
337	N	0.225321	0.734022	0.646126
338	C	0.302596	0.792169	0.410591
339	H	0.304008	0.817377	0.417785
340	H	0.328884	0.797905	0.400129
341	H	0.295526	0.776884	0.441357
342	N	0.211686	0.778633	0.633761
343	H	0.191293	0.760527	0.617722
344	N	0.286826	0.721296	0.377467
345	H	0.307544	0.735785	0.395462
346	C	0.228265	0.963668	0.654978
347	C	0.209336	0.970362	0.354728
348	C	0.224012	0.503801	0.375553
349	C	0.258599	0.530528	0.36264
350	N	0.275328	0.521434	0.664939
351	H	0.185409	0.950439	0.365347
352	N	0.261506	0.990409	0.646156
353	C	0.203417	0.509531	0.410711
354	H	0.178234	0.485742	0.417941
355	H	0.19766	0.530078	0.400265
356	H	0.218741	0.517771	0.44146
357	N	0.216892	0.932153	0.633837
358	H	0.234986	0.929869	0.617758
359	N	0.274253	0.564653	0.377483
360	H	0.259772	0.570887	0.395482
361	C	0.031836	0.763671	0.654805
362	C	0.025143	0.738021	0.354512
363	C	0.491727	0.71929	0.375394
364	C	0.465004	0.727174	0.362537
365	N	0.474091	0.752999	0.664843
366	H	0.045078	0.734027	0.365134
367	N	0.005104	0.770193	0.646033
368	C	0.486003	0.692962	0.410548
369	H	0.509799	0.691549	0.417732
370	H	0.465438	0.666666	0.400125
371	H	0.477808	0.700061	0.441311
372	N	0.063353	0.783826	0.633668
373	H	0.065645	0.804223	0.617632
374	N	0.43089	0.708716	0.377423
375	H	0.424665	0.688005	0.395429
376	C	0.173972	0.868312	0.625228
377	C	0.137982	0.841227	0.624756
378	C	0.127195	0.804763	0.625112
379	C	0.154286	0.795864	0.62471
380	C	0.190755	0.821543	0.958476
381	C	0.199663	0.85754	0.624727
382	H	0.14707	0.769838	0.627483
383	H	0.225677	0.876334	0.627653
384	H	0.119173	0.84844	0.62756
385	C	0.183133	0.904179	0.63202
386	C	0.217469	0.812391	0.965256
387	C	0.091327	0.778041	0.631838
388	O	0.251484	0.839039	0.636009
389	O	0.156484	0.911537	0.636189
390	O	0.083959	0.744024	0.635916
391	C	0.319087	0.627777	0.706673
392	C	0.355478	0.653612	0.70664
393	C	0.36777	0.690432	0.706689
394	C	0.341928	0.700982	0.70663
395	C	0.305108	0.676457	0.040045
396	C	0.294558	0.640066	0.706646
397	H	0.350358	0.727352	0.704115
398	H	0.268185	0.622126	0.704135
399	H	0.373418	0.645185	0.704089
400	C	0.307984	0.591222	0.702614
401	C	0.279654	0.687557	0.035975
402	C	0.404322	0.715883	0.702587
403	O	0.246108	0.66309	0.690903
404	O	0.332451	0.582138	0.690893
405	O	0.4134	0.749429	0.690853
406	C	0.231846	0.767279	0.988233
407	C	0.257484	0.786224	0.687957
408	C	0.276241	0.771553	0.708802
409	C	0.268361	0.736949	0.695935
410	N	0.242522	0.720205	0.99826
411	H	0.261507	0.810173	0.698542
412	N	0.225321	0.734022	0.979458
413	C	0.302596	0.792169	0.743922
414	H	0.304008	0.817377	0.751117
415	H	0.328884	0.797905	0.733463
416	H	0.295526	0.776884	0.774692
417	N	0.211686	0.778633	0.967096
418	H	0.191293	0.760527	0.951053
419	N	0.286826	0.721296	0.710801
420	H	0.307544	0.735785	0.728793
421	C	0.228265	0.963668	0.988313
422	C	0.209336	0.970362	0.688063
423	C	0.224012	0.503801	0.708885
424	C	0.258599	0.530528	0.695971
425	N	0.275328	0.521434	0.998272
426	H	0.185409	0.950439	0.698678
427	N	0.261506	0.990409	0.979491
428	C	0.203417	0.509531	0.744045
429	H	0.178234	0.485742	0.751276
430	H	0.19766	0.530078	0.7336
431	H	0.218741	0.517771	0.774795
432	N	0.216892	0.932153	0.967169
433	H	0.234986	0.929869	0.951093
434	N	0.274253	0.564653	0.710815
435	H	0.259772	0.570887	0.728817
436	C	0.031836	0.763671	0.98814
437	C	0.025143	0.738021	0.687847
438	C	0.491727	0.71929	0.708729
439	C	0.465004	0.727174	0.695868
440	N	0.474091	0.752999	0.998177
441	H	0.045078	0.734027	0.698465
442	N	0.005104	0.770193	0.979365
443	C	0.486003	0.692962	0.743879
444	H	0.509799	0.691549	0.751067
445	H	0.465438	0.666666	0.733457
446	H	0.477808	0.700061	0.774646
447	N	0.063353	0.783826	0.966999
448	H	0.065645	0.804223	0.950963
449	N	0.43089	0.708716	0.710758
450	H	0.424665	0.688005	0.72876
451	C	0.673972	0.368312	0.95856
452	C	0.637982	0.341227	0.958088
453	C	0.627195	0.304762	0.958443
454	C	0.654288	0.295864	0.958045
455	C	0.690756	0.321543	0.291812
456	C	0.699663	0.357539	0.958058
457	H	0.647072	0.269838	0.960815
458	H	0.725676	0.376334	0.960987
459	H	0.619173	0.34844	0.960894
460	C	0.683133	0.404178	0.965352
461	C	0.71747	0.31239	0.29859
462	C	0.591327	0.27804	0.965172
463	O	0.751486	0.339038	0.969344
464	O	0.656484	0.411537	0.96952
465	O	0.583959	0.244024	0.969251
466	C	0.819087	0.127777	0.040006
467	C	0.855479	0.153613	0.039972
468	C	0.867771	0.190432	0.040023
469	C	0.841929	0.200982	0.039965
470	C	0.805108	0.176457	0.373378
471	C	0.794557	0.140065	0.039979
472	H	0.850358	0.227352	0.037451
473	H	0.768186	0.122126	0.037471
474	H	0.87342	0.145185	0.037422
475	C	0.807984	0.091221	0.035949
476	C	0.779655	0.187557	0.369309
477	C	0.904322	0.215883	0.035923
478	O	0.746109	0.163091	0.024236
479	O	0.832452	0.082138	0.024228
480	O	0.9134	0.249428	0.024186
481	C	0.731846	0.267278	0.321568
482	C	0.757483	0.286224	0.021291
483	C	0.776242	0.271553	0.042137
484	C	0.768361	0.23695	0.029269
485	N	0.742522	0.220204	0.331593
486	H	0.761508	0.310172	0.031875
487	N	0.725321	0.234021	0.312793
488	C	0.802597	0.292169	0.077257
489	H	0.804009	0.317377	0.084452
490	H	0.828885	0.297904	0.066796
491	H	0.795526	0.276884	0.108026
492	N	0.711686	0.278633	0.300428
493	H	0.691293	0.260526	0.284387
494	N	0.786825	0.221295	0.044134
495	H	0.807543	0.235783	0.062129
496	C	0.728265	0.463668	0.321646
497	C	0.709336	0.470362	0.021395
498	C	0.724011	0.0038	0.042219
499	C	0.7586	0.030527	0.029307
500	N	0.775329	0.021433	0.331605
501	H	0.685409	0.450439	0.032012
502	N	0.761506	0.490408	0.312824
503	C	0.703419	0.009532	0.077378
504	H	0.678235	0.985742	0.084609
505	H	0.69766	0.030078	0.066932
506	H	0.718742	0.017771	0.108128
507	N	0.716892	0.432152	0.300503
508	H	0.734986	0.429868	0.284426
509	N	0.774253	0.064653	0.044149
510	H	0.759773	0.070886	0.062149
511	C	0.531839	0.263671	0.321474
512	C	0.525143	0.23802	0.02118
513	C	0.991727	0.219289	0.042061
514	C	0.965005	0.227173	0.029203
515	N	0.974092	0.253	0.33151
516	H	0.545077	0.234025	0.0318
517	N	0.505104	0.270193	0.312699
518	C	0.986004	0.192962	0.077214
519	H	0.009798	0.191547	0.084401
520	H	0.965439	0.166667	0.066791
521	H	0.977809	0.200062	0.107979
522	N	0.563353	0.283826	0.300334
523	H	0.565645	0.304222	0.284299
524	N	0.930892	0.208717	0.044091
525	H	0.924665	0.188005	0.062095
526	C	0.673972	0.368312	0.291894
527	C	0.637982	0.341227	0.291423
528	C	0.627195	0.304762	0.291777
529	C	0.654288	0.295864	0.291377
530	C	0.690756	0.321543	0.625145
531	C	0.699663	0.357539	0.291393
532	H	0.647072	0.269838	0.294149
533	H	0.725676	0.376334	0.29432
534	H	0.619173	0.34844	0.294228
535	C	0.683133	0.404178	0.298687
536	C	0.71747	0.31239	0.631924
537	C	0.591327	0.27804	0.298506
538	O	0.751486	0.339038	0.302677
539	O	0.656484	0.411537	0.302855
540	O	0.583959	0.244024	0.302584
541	C	0.819087	0.127777	0.373338
542	C	0.855479	0.153613	0.373305
543	C	0.867771	0.190432	0.373355
544	C	0.841929	0.200982	0.373298
545	C	0.805108	0.176457	0.706709
546	C	0.794557	0.140065	0.373311
547	H	0.850358	0.227352	0.370784
548	H	0.768186	0.122126	0.370804
549	H	0.87342	0.145185	0.370754
550	C	0.807984	0.091221	0.369283
551	C	0.779655	0.187557	0.702641
552	C	0.904322	0.215883	0.369256
553	O	0.746109	0.163091	0.357568
554	O	0.832452	0.082138	0.357561
555	O	0.9134	0.249428	0.357518
556	C	0.731846	0.267278	0.654902
557	C	0.757483	0.286224	0.354625
558	C	0.776242	0.271553	0.37547
559	C	0.768361	0.23695	0.362603
560	N	0.742522	0.220204	0.664926
561	H	0.761508	0.310172	0.365207
562	N	0.725321	0.234021	0.646126
563	C	0.802597	0.292169	0.410591
564	H	0.804009	0.317377	0.417785
565	H	0.828885	0.297904	0.400129
566	H	0.795526	0.276884	0.441357
567	N	0.711686	0.278633	0.633761
568	H	0.691293	0.260526	0.617722
569	N	0.786825	0.221295	0.377467
570	H	0.807543	0.235783	0.395462
571	C	0.728265	0.463668	0.654978
572	C	0.709336	0.470362	0.354728
573	C	0.724011	0.0038	0.375553
574	C	0.7586	0.030527	0.36264
575	N	0.775329	0.021433	0.664939
576	H	0.685409	0.450439	0.365347
577	N	0.761506	0.490408	0.646156
578	C	0.703419	0.009532	0.410711
579	H	0.678235	0.985742	0.417941
580	H	0.69766	0.030078	0.400265
581	H	0.718742	0.017771	0.44146
582	N	0.716892	0.432152	0.633837
583	H	0.734986	0.429868	0.617758
584	N	0.774253	0.064653	0.377483
585	H	0.759773	0.070886	0.395482
586	C	0.531839	0.263671	0.654805
587	C	0.525143	0.23802	0.354512
588	C	0.991727	0.219289	0.375394
589	C	0.965005	0.227173	0.362537
590	N	0.974092	0.253	0.664843
591	H	0.545077	0.234025	0.365134
592	N	0.505104	0.270193	0.646033
593	C	0.986004	0.192962	0.410548
594	H	0.009798	0.191547	0.417732
595	H	0.965439	0.166667	0.400125
596	H	0.977809	0.200062	0.441311
597	N	0.563353	0.283826	0.633668
598	H	0.565645	0.304222	0.617632
599	N	0.930892	0.208717	0.377423
600	H	0.924665	0.188005	0.395429
601	C	0.673972	0.368312	0.625228
602	C	0.637982	0.341227	0.624756
603	C	0.627195	0.304762	0.625112
604	C	0.654288	0.295864	0.62471
605	C	0.690756	0.321543	0.958476
606	C	0.699663	0.357539	0.624727
607	H	0.647072	0.269838	0.627483
608	H	0.725676	0.376334	0.627653
609	H	0.619173	0.34844	0.62756
610	C	0.683133	0.404178	0.63202
611	C	0.71747	0.31239	0.965256
612	C	0.591327	0.27804	0.631838
613	O	0.751486	0.339038	0.636009
614	O	0.656484	0.411537	0.636189
615	O	0.583959	0.244024	0.635916
616	C	0.819087	0.127777	0.706673
617	C	0.855479	0.153613	0.70664
618	C	0.867771	0.190432	0.706689
619	C	0.841929	0.200982	0.70663
620	C	0.805108	0.176457	0.040045
621	C	0.794557	0.140065	0.706646
622	H	0.850358	0.227352	0.704115
623	H	0.768186	0.122126	0.704135
624	H	0.87342	0.145185	0.704089
625	C	0.807984	0.091221	0.702614
626	C	0.779655	0.187557	0.035975
627	C	0.904322	0.215883	0.702587
628	O	0.746109	0.163091	0.690903
629	O	0.832452	0.082138	0.690893
630	O	0.9134	0.249428	0.690853
631	C	0.731846	0.267278	0.988233
632	C	0.757483	0.286224	0.687957
633	C	0.776242	0.271553	0.708802
634	C	0.768361	0.23695	0.695935
635	N	0.742522	0.220204	0.99826
636	H	0.761508	0.310172	0.698542
637	N	0.725321	0.234021	0.979458
638	C	0.802597	0.292169	0.743922
639	H	0.804009	0.317377	0.751117
640	H	0.828885	0.297904	0.733463
641	H	0.795526	0.276884	0.774692
642	N	0.711686	0.278633	0.967096
643	H	0.691293	0.260526	0.951053
644	N	0.786825	0.221295	0.710801
645	H	0.807543	0.235783	0.728793
646	C	0.728265	0.463668	0.988313
647	C	0.709336	0.470362	0.688063
648	C	0.724011	0.0038	0.708885
649	C	0.7586	0.030527	0.695971
650	N	0.775329	0.021433	0.998272
651	H	0.685409	0.450439	0.698678
652	N	0.761506	0.490408	0.979491
653	C	0.703419	0.009532	0.744042
654	H	0.678235	0.985742	0.751276
655	H	0.69766	0.030078	0.7336
656	H	0.718742	0.017771	0.774795
657	N	0.716892	0.432152	0.967169
658	H	0.734986	0.429868	0.951093
659	N	0.774253	0.064653	0.710815
660	H	0.759773	0.070886	0.728817
661	C	0.531839	0.263671	0.98814
662	C	0.525143	0.23802	0.687847
663	C	0.991727	0.219289	0.708729
664	C	0.965005	0.227173	0.695868
665	N	0.974092	0.253	0.998177
666	H	0.545077	0.234025	0.698465
667	N	0.505104	0.270193	0.979365
668	C	0.986004	0.192962	0.743879
669	H	0.009798	0.191547	0.751067
670	H	0.965439	0.166667	0.733457
671	H	0.977809	0.200062	0.774646
672	N	0.563353	0.283826	0.966999
673	H	0.565645	0.304222	0.950963
674	N	0.930892	0.208717	0.710758
675	H	0.924665	0.188005	0.72876
676	C	0.673972	0.868312	0.95856
677	C	0.637982	0.841227	0.958088
678	C	0.627194	0.804763	0.958443
679	C	0.654286	0.795864	0.958045
680	C	0.690756	0.821543	0.291812
681	C	0.699663	0.85754	0.958058
682	H	0.647072	0.769838	0.960815
683	H	0.725677	0.876334	0.960987
684	H	0.619173	0.84844	0.960894
685	C	0.683133	0.904179	0.965352
686	C	0.71747	0.812391	0.29859
687	C	0.591326	0.778041	0.965172
688	O	0.751486	0.839039	0.969344
689	O	0.656484	0.911537	0.96952
690	O	0.58396	0.744024	0.969251
691	C	0.819087	0.627777	0.040006
692	C	0.855479	0.653612	0.039972
693	C	0.867771	0.690432	0.040023
694	C	0.84193	0.700982	0.039965
695	C	0.805108	0.676457	0.373378
696	C	0.794558	0.640066	0.039979
697	H	0.850358	0.727352	0.037451
698	H	0.768185	0.622126	0.037471
699	H	0.873419	0.645185	0.037422
700	C	0.807984	0.591222	0.035949
701	C	0.779655	0.687557	0.369309
702	C	0.904322	0.715883	0.035923
703	O	0.746108	0.66309	0.024236
704	O	0.83245	0.582138	0.024228
705	O	0.9134	0.749429	0.024186
706	C	0.731846	0.767279	0.321568
707	C	0.757483	0.786224	0.021291
708	C	0.776242	0.771553	0.042137
709	C	0.768361	0.736949	0.029269
710	N	0.742523	0.720205	0.331593
711	H	0.761508	0.810173	0.031875
712	N	0.725321	0.734022	0.312793
713	C	0.802598	0.792169	0.077257
714	H	0.804009	0.817377	0.084452
715	H	0.828885	0.797905	0.066796
716	H	0.795526	0.776884	0.108026
717	N	0.711686	0.778633	0.300428
718	H	0.691293	0.760527	0.284387
719	N	0.786826	0.721296	0.044134
720	H	0.807543	0.735785	0.062129
721	C	0.728265	0.963668	0.321646
722	C	0.709337	0.970362	0.021395
723	C	0.724011	0.503801	0.042219
724	C	0.758599	0.530528	0.029307
725	N	0.775327	0.521434	0.331606
726	H	0.685408	0.950439	0.032012
727	N	0.761506	0.990409	0.312824
728	C	0.703418	0.509531	0.077378
729	H	0.678236	0.485742	0.084609
730	H	0.69766	0.530078	0.066932
731	H	0.718742	0.517771	0.108128
732	N	0.716892	0.932153	0.300503
733	H	0.734986	0.929869	0.284426
734	N	0.774254	0.564653	0.044149
735	H	0.759771	0.570887	0.062149
736	C	0.531838	0.763671	0.321474
737	C	0.525143	0.738021	0.02118
738	C	0.991728	0.71929	0.042061
739	C	0.965005	0.727174	0.029203
740	N	0.974092	0.752999	0.33151
741	H	0.545077	0.734027	0.0318
742	N	0.505104	0.770193	0.312699
743	C	0.986002	0.692962	0.077214
744	H	0.009799	0.691549	0.084401
745	H	0.965439	0.666666	0.066791
746	H	0.977809	0.700061	0.107979
747	N	0.563354	0.783826	0.300334
748	H	0.565646	0.804223	0.284299
749	N	0.930892	0.708716	0.044091
750	H	0.924664	0.688005	0.062095
751	C	0.673972	0.868312	0.291894
752	C	0.637982	0.841227	0.291423
753	C	0.627194	0.804763	0.291777
754	C	0.654286	0.795864	0.291377
755	C	0.690756	0.821543	0.625145
756	C	0.699663	0.85754	0.291393
757	H	0.647072	0.769838	0.294149
758	H	0.725677	0.876334	0.29432
759	H	0.619173	0.84844	0.294228
760	C	0.683133	0.904179	0.298687
761	C	0.71747	0.812391	0.631924
762	C	0.591326	0.778041	0.298506
763	O	0.751486	0.839039	0.302677
764	O	0.656484	0.911537	0.302855
765	O	0.58396	0.744024	0.302584
766	C	0.819087	0.627777	0.373338
767	C	0.855479	0.653612	0.373305
768	C	0.867771	0.690432	0.373355
769	C	0.84193	0.700982	0.373298
770	C	0.805108	0.676457	0.706709
771	C	0.794558	0.640066	0.373311
772	H	0.850358	0.727352	0.370784
773	H	0.768185	0.622126	0.370804
774	H	0.873419	0.645185	0.370754
775	C	0.807984	0.591222	0.369283
776	C	0.779655	0.687557	0.702641
777	C	0.904322	0.715883	0.369256
778	O	0.746108	0.66309	0.357568
779	O	0.83245	0.582138	0.357561
780	O	0.9134	0.749429	0.357518
781	C	0.731846	0.767279	0.654902
782	C	0.757483	0.786224	0.354625
783	C	0.776242	0.771553	0.37547
784	C	0.768361	0.736949	0.362603
785	N	0.742523	0.720205	0.664926
786	H	0.761508	0.810173	0.365207
787	N	0.725321	0.734022	0.646126
788	C	0.802598	0.792169	0.410591
789	H	0.804009	0.817377	0.417785
790	H	0.828885	0.797905	0.400129
791	H	0.795526	0.776884	0.441357
792	N	0.711686	0.778633	0.633761
793	H	0.691293	0.760527	0.617722
794	N	0.786826	0.721296	0.377467
795	H	0.807543	0.735785	0.395462
796	C	0.728265	0.963668	0.654978
797	C	0.709337	0.970362	0.354728
798	C	0.724011	0.503801	0.375553
799	C	0.758599	0.530528	0.36264
800	N	0.775327	0.521434	0.664939
801	H	0.685408	0.950439	0.365347
802	N	0.761506	0.990409	0.646156
803	C	0.703418	0.509531	0.410711
804	H	0.678236	0.485742	0.417941
805	H	0.69766	0.530078	0.400265
806	H	0.718742	0.517771	0.44146
807	N	0.716892	0.932153	0.633837
808	H	0.734986	0.929869	0.617758
809	N	0.774254	0.564653	0.377483
810	H	0.759771	0.570887	0.395482
811	C	0.531838	0.763671	0.654805
812	C	0.525143	0.738021	0.354512
813	C	0.991728	0.71929	0.375394
814	C	0.965005	0.727174	0.362537
815	N	0.974092	0.752999	0.664843
816	H	0.545077	0.734027	0.365134
817	N	0.505104	0.770193	0.646033
818	C	0.986002	0.692962	0.410548
819	H	0.009799	0.691549	0.417732
820	H	0.965439	0.666666	0.400125
821	H	0.977809	0.700061	0.441311
822	N	0.563354	0.783826	0.633668
823	H	0.565646	0.804223	0.617632
824	N	0.930892	0.708716	0.377423
825	H	0.924664	0.688005	0.395429
826	C	0.673972	0.868312	0.625228
827	C	0.637982	0.841227	0.624756
828	C	0.627194	0.804763	0.625112
829	C	0.654286	0.795864	0.62471
830	C	0.690756	0.821543	0.958476
831	C	0.699663	0.85754	0.624727
832	H	0.647072	0.769838	0.627483
833	H	0.725677	0.876334	0.627653
834	H	0.619173	0.84844	0.62756
835	C	0.683133	0.904179	0.63202
836	C	0.71747	0.812391	0.965256
837	C	0.591326	0.778041	0.631838
838	O	0.751486	0.839039	0.636009
839	O	0.656484	0.911537	0.636189
840	O	0.58396	0.744024	0.635916
841	C	0.819087	0.627777	0.706673
842	C	0.855479	0.653612	0.70664
843	C	0.867771	0.690432	0.706689
844	C	0.84193	0.700982	0.70663
845	C	0.805108	0.676457	0.040045
846	C	0.794558	0.640066	0.706646
847	H	0.850358	0.727352	0.704115
848	H	0.768185	0.622126	0.704135
849	H	0.873419	0.645185	0.704089
850	C	0.807984	0.591222	0.702614
851	C	0.779655	0.687557	0.035975
852	C	0.904322	0.715883	0.702587
853	O	0.746108	0.66309	0.690903
854	O	0.83245	0.582138	0.690893
855	O	0.9134	0.749429	0.690853
856	C	0.731846	0.767279	0.988233
857	C	0.757483	0.786224	0.687957
858	C	0.776242	0.771553	0.708802
859	C	0.768361	0.736949	0.695935
860	N	0.742523	0.720205	0.99826
861	H	0.761508	0.810173	0.698542
862	N	0.725321	0.734022	0.979458
863	C	0.802598	0.792169	0.743922
864	H	0.804009	0.817377	0.751117
865	H	0.828885	0.797905	0.733463
866	H	0.795526	0.776884	0.774692
867	N	0.711686	0.778633	0.967096
868	H	0.691293	0.760527	0.951053
869	N	0.786826	0.721296	0.710801
870	H	0.807543	0.735785	0.728793
871	C	0.728265	0.963668	0.988313
872	C	0.709337	0.970362	0.688063
873	C	0.724011	0.503801	0.708885
874	C	0.758599	0.530528	0.695971
875	N	0.775327	0.521434	0.998272
876	H	0.685408	0.950439	0.698678
877	N	0.761506	0.990409	0.979491
878	C	0.703418	0.509531	0.744045
879	H	0.678236	0.485742	0.751276
880	H	0.69766	0.530078	0.7336
881	H	0.718742	0.517771	0.774795
882	N	0.716892	0.932153	0.967169
883	H	0.734986	0.929869	0.951093
884	N	0.774254	0.564653	0.710815
885	H	0.759771	0.570887	0.728817
886	C	0.531838	0.763671	0.98814
887	C	0.525143	0.738021	0.687847
888	C	0.991728	0.71929	0.708729
889	C	0.965005	0.727174	0.695868
890	N	0.974092	0.752999	0.998177
891	H	0.545077	0.734027	0.698465
892	N	0.505104	0.770193	0.979365
893	C	0.986002	0.692962	0.743879
894	H	0.009799	0.691549	0.751067
895	H	0.965439	0.666666	0.733457
896	H	0.977809	0.700061	0.774646
897	N	0.563354	0.783826	0.966999
898	H	0.565646	0.804223	0.950963
899	N	0.930892	0.708716	0.710758
900	H	0.924664	0.688005	0.72876
