data_C396H180N180O72_2018-02-15_10:32:46
#******************************************
#
# CIF file created by Zeo++
# Zeo++ is an open source package to
# analyze microporous materials
#
#*******************************************

_cell_length_a		43.5659   
_cell_length_b		43.5658   
_cell_length_c		30.1004   
_cell_angle_alpha		90   
_cell_angle_beta		90   
_cell_angle_gamma		120   

_symmetry_space_group_name_H-M		'P1'
_symmetry_Int_Tables_number		1
_symmetry_cell_setting		Monoclinic

loop_
_symmetry_equiv_pos_as_xyz
'+x,+y,+z'

loop_
_atom_site_label
_atom_site_type_symbol
_atom_site_fract_x
_atom_site_fract_y
_atom_site_fract_z
1	C	0.176057	0.368991	0.045955
2	C	0.139535	0.343178	0.0463
3	C	0.126819	0.306222	0.046036
4	C	0.152638	0.29552	0.046349
5	C	0.189595	0.319758	0.379367
6	C	0.200305	0.356285	0.046353
7	H	0.143998	0.269124	0.043822
8	H	0.226694	0.374032	0.043704
9	H	0.12178	0.351816	0.043737
10	C	0.187109	0.405557	0.040305
11	C	0.215116	0.308711	0.373736
12	C	0.090252	0.280698	0.040421
13	O	0.249181	0.334098	0.032224
14	O	0.161727	0.414229	0.032064
15	O	0.081572	0.246633	0.032243
16	C	0.31908	0.12772	0.954589
17	C	0.355577	0.153627	0.954071
18	C	0.368138	0.190542	0.954533
19	C	0.342219	0.201121	0.954091
20	C	0.305303	0.176772	0.287875
21	C	0.294723	0.140274	0.954097
22	H	0.350734	0.227496	0.956609
23	H	0.268347	0.122417	0.956636
24	H	0.373438	0.145117	0.956626
25	C	0.308205	0.091266	0.960898
26	C	0.279724	0.187641	0.29422
27	C	0.404585	0.216125	0.960865
28	O	0.245677	0.162053	0.968765
29	O	0.33379	0.082807	0.968795
30	O	0.413035	0.25016	0.968812
31	C	0.227411	0.260868	0.023626
32	N	0.256494	0.281732	0.331694
33	C	0.276505	0.270478	0.31054
34	C	0.26689	0.234441	0.313486
35	N	0.238005	0.213547	0.005559
36	C	0.217954	0.22465	0.027008
37	H	0.298035	0.288191	0.292611
38	C	0.191397	0.200871	0.049974
39	N	0.16805	0.179885	0.070402
40	N	0.207698	0.274287	0.04154
41	H	0.185778	0.257316	0.055851
42	N	0.286983	0.222017	0.294476
43	H	0.308837	0.239687	0.280501
44	C	0.234966	0.465704	0.023571
45	N	0.214109	0.473931	0.331638
46	C	0.225369	0.005209	0.310514
47	C	0.261404	0.031631	0.313489
48	N	0.282291	0.023632	0.005563
49	C	0.27118	0.492469	0.026992
50	H	0.207664	0.009025	0.292563
51	C	0.294949	0.48968	0.049966
52	N	0.315927	0.487311	0.070402
53	N	0.221534	0.432568	0.041473
54	H	0.238494	0.427617	0.055814
55	N	0.273828	0.064149	0.294482
56	H	0.256161	0.068335	0.280505
57	C	0.030117	0.268413	0.02364
58	N	0.021899	0.239334	0.3317
59	C	0.490636	0.219332	0.310537
60	C	0.464216	0.22895	0.313485
61	N	0.472206	0.257831	0.005566
62	C	0.003362	0.277878	0.027015
63	H	0.48682	0.197804	0.292602
64	C	0.006136	0.304423	0.050006
65	N	0.008491	0.327758	0.070456
66	N	0.063248	0.28812	0.04156
67	H	0.0682	0.310039	0.05588
68	N	0.431701	0.208863	0.294468
69	H	0.427522	0.187018	0.280472
70	C	0.176057	0.368991	0.379288
71	C	0.139535	0.343178	0.379633
72	C	0.126819	0.306222	0.379371
73	C	0.152638	0.29552	0.379683
74	C	0.189595	0.319758	0.712699
75	C	0.200305	0.356285	0.379686
76	H	0.143998	0.269124	0.377155
77	H	0.226694	0.374032	0.377038
78	H	0.12178	0.351816	0.377068
79	C	0.187109	0.405557	0.37364
80	C	0.215116	0.308711	0.707067
81	C	0.090252	0.280698	0.373756
82	O	0.249181	0.334098	0.365557
83	O	0.161727	0.414229	0.365397
84	O	0.081572	0.246633	0.365577
85	C	0.31908	0.12772	0.287923
86	C	0.355577	0.153627	0.287404
87	C	0.368138	0.190542	0.287866
88	C	0.342219	0.201121	0.287424
89	C	0.305303	0.176772	0.621208
90	C	0.294723	0.140274	0.287432
91	H	0.350734	0.227496	0.289942
92	H	0.268347	0.122417	0.289969
93	H	0.373438	0.145117	0.289959
94	C	0.308205	0.091266	0.294231
95	C	0.279724	0.187641	0.627553
96	C	0.404585	0.216125	0.2942
97	O	0.245677	0.162053	0.302099
98	O	0.33379	0.082807	0.302129
99	O	0.413035	0.25016	0.302146
100	C	0.227411	0.260868	0.356959
101	N	0.256494	0.281732	0.665028
102	C	0.276505	0.270478	0.643872
103	C	0.26689	0.234441	0.646819
104	N	0.238005	0.213547	0.338893
105	C	0.217954	0.22465	0.360341
106	H	0.298035	0.288191	0.625945
107	C	0.191397	0.200871	0.383307
108	N	0.16805	0.179885	0.403736
109	N	0.207698	0.274287	0.374872
110	H	0.185778	0.257316	0.389184
111	N	0.286983	0.222017	0.627809
112	H	0.308837	0.239687	0.613836
113	C	0.234966	0.465704	0.356906
114	N	0.214109	0.473931	0.664972
115	C	0.225369	0.005209	0.643849
116	C	0.261404	0.031631	0.646822
117	N	0.282291	0.023632	0.338896
118	C	0.27118	0.492469	0.360324
119	H	0.207664	0.009025	0.625896
120	C	0.294949	0.48968	0.383297
121	N	0.315927	0.487311	0.403736
122	N	0.221534	0.432568	0.374806
123	H	0.238494	0.427617	0.389148
124	N	0.273828	0.064149	0.627816
125	H	0.256161	0.068335	0.613839
126	C	0.030117	0.268413	0.356972
127	N	0.021899	0.239334	0.665035
128	C	0.490636	0.219332	0.643869
129	C	0.464216	0.22895	0.646819
130	N	0.472206	0.257831	0.338899
131	C	0.003362	0.277878	0.360348
132	H	0.48682	0.197804	0.625936
133	C	0.006136	0.304423	0.383341
134	N	0.008491	0.327758	0.403789
135	N	0.063248	0.28812	0.374892
136	H	0.0682	0.310039	0.389214
137	N	0.431701	0.208863	0.627803
138	H	0.427522	0.187018	0.613806
139	C	0.176057	0.368991	0.712622
140	C	0.139535	0.343178	0.712968
141	C	0.126819	0.306222	0.712702
142	C	0.152638	0.29552	0.713014
143	C	0.189595	0.319758	0.046033
144	C	0.200305	0.356285	0.713021
145	H	0.143998	0.269124	0.710489
146	H	0.226694	0.374032	0.71037
147	H	0.12178	0.351816	0.710403
148	C	0.187109	0.405557	0.706971
149	C	0.215116	0.308711	0.040402
150	C	0.090252	0.280698	0.707087
151	O	0.249181	0.334098	0.698891
152	O	0.161727	0.414229	0.698729
153	O	0.081572	0.246633	0.698908
154	C	0.31908	0.12772	0.621255
155	C	0.355577	0.153627	0.620736
156	C	0.368138	0.190542	0.621198
157	C	0.342219	0.201121	0.620756
158	C	0.305303	0.176772	0.954543
159	C	0.294723	0.140274	0.620766
160	H	0.350734	0.227496	0.623274
161	H	0.268347	0.122417	0.623301
162	H	0.373438	0.145117	0.623291
163	C	0.308205	0.091266	0.627563
164	C	0.279724	0.187641	0.960888
165	C	0.404585	0.216125	0.627534
166	O	0.245677	0.162053	0.635434
167	O	0.33379	0.082807	0.63546
168	O	0.413035	0.25016	0.63548
169	C	0.227411	0.260868	0.690293
170	N	0.256494	0.281732	0.998361
171	C	0.276505	0.270478	0.977207
172	C	0.26689	0.234441	0.980154
173	N	0.238005	0.213547	0.672224
174	C	0.217954	0.22465	0.693676
175	H	0.298035	0.288191	0.959277
176	C	0.191397	0.200871	0.716639
177	N	0.16805	0.179885	0.737067
178	N	0.207698	0.274287	0.708207
179	H	0.185778	0.257316	0.722516
180	N	0.286983	0.222017	0.961144
181	H	0.308837	0.239687	0.947167
182	C	0.234966	0.465704	0.690237
183	N	0.214109	0.473931	0.998306
184	C	0.225369	0.005209	0.97718
185	C	0.261404	0.031631	0.980157
186	N	0.282291	0.023632	0.672227
187	C	0.27118	0.492469	0.693659
188	H	0.207664	0.009025	0.95923
189	C	0.294949	0.48968	0.716632
190	N	0.315927	0.487311	0.737067
191	N	0.221534	0.432568	0.70814
192	H	0.238494	0.427617	0.722479
193	N	0.273828	0.064149	0.961147
194	H	0.256161	0.068335	0.947171
195	C	0.030117	0.268413	0.690307
196	N	0.021899	0.239334	0.998367
197	C	0.490636	0.219332	0.977203
198	C	0.464216	0.22895	0.98015
199	N	0.472206	0.257831	0.672231
200	C	0.003362	0.277878	0.693682
201	H	0.48682	0.197804	0.95927
202	C	0.006136	0.304423	0.716672
203	N	0.008491	0.327758	0.737123
204	N	0.063248	0.28812	0.708227
205	H	0.0682	0.310039	0.722546
206	N	0.431701	0.208863	0.961134
207	H	0.427522	0.187018	0.947137
208	C	0.176057	0.868992	0.045955
209	C	0.139536	0.843179	0.0463
210	C	0.126818	0.806221	0.046036
211	C	0.152638	0.795518	0.046349
212	C	0.189595	0.81976	0.379367
213	C	0.200306	0.856286	0.046353
214	H	0.143996	0.769122	0.043822
215	H	0.226693	0.874031	0.043704
216	H	0.12178	0.851817	0.043737
217	C	0.187109	0.905558	0.040305
218	C	0.215116	0.808713	0.373736
219	C	0.090251	0.780697	0.040421
220	O	0.24918	0.834096	0.032224
221	O	0.161727	0.914231	0.032064
222	O	0.081571	0.746633	0.032243
223	C	0.31908	0.62772	0.954589
224	C	0.355577	0.653628	0.954071
225	C	0.368138	0.690544	0.954533
226	C	0.34222	0.701122	0.954091
227	C	0.305303	0.676772	0.287875
228	C	0.294723	0.640275	0.954097
229	H	0.350732	0.727497	0.956609
230	H	0.268348	0.622419	0.956636
231	H	0.373439	0.645117	0.956626
232	C	0.308206	0.591268	0.960898
233	C	0.279724	0.687642	0.29422
234	C	0.404587	0.716126	0.960865
235	O	0.245677	0.662054	0.968765
236	O	0.333791	0.582807	0.968795
237	O	0.413034	0.750161	0.968812
238	C	0.227411	0.760869	0.023626
239	N	0.256494	0.781733	0.331694
240	C	0.276504	0.770477	0.31054
241	C	0.26689	0.734441	0.313486
242	N	0.238005	0.713547	0.005559
243	C	0.217954	0.72465	0.027008
244	H	0.298035	0.788193	0.292611
245	C	0.191397	0.700873	0.049974
246	N	0.168051	0.679886	0.070402
247	N	0.207699	0.774288	0.04154
248	H	0.185778	0.757317	0.055851
249	N	0.286983	0.722018	0.294476
250	H	0.308837	0.739689	0.280501
251	C	0.234967	0.965705	0.023571
252	N	0.21411	0.973932	0.331638
253	C	0.225368	0.505209	0.310514
254	C	0.261403	0.531632	0.313489
255	N	0.282291	0.523633	0.005563
256	C	0.27118	0.99247	0.026992
257	H	0.207664	0.509026	0.292563
258	C	0.294948	0.989679	0.049966
259	N	0.315926	0.987309	0.070402
260	N	0.221533	0.932567	0.041473
261	H	0.238494	0.927618	0.055814
262	N	0.273829	0.564151	0.294482
263	H	0.256161	0.568336	0.280505
264	C	0.030118	0.768415	0.02364
265	N	0.021899	0.739334	0.3317
266	C	0.490636	0.719333	0.310537
267	C	0.464216	0.728949	0.313485
268	N	0.472207	0.757831	0.005566
269	C	0.003362	0.77788	0.027015
270	H	0.486819	0.697803	0.292602
271	C	0.006135	0.804424	0.050006
272	N	0.008493	0.827759	0.070456
273	N	0.063248	0.788121	0.04156
274	H	0.068199	0.810038	0.05588
275	N	0.431702	0.708864	0.294468
276	H	0.427522	0.687019	0.280472
277	C	0.176057	0.868992	0.379288
278	C	0.139536	0.843179	0.379633
279	C	0.126818	0.806221	0.379371
280	C	0.152638	0.795518	0.379683
281	C	0.189595	0.81976	0.712699
282	C	0.200306	0.856286	0.379686
283	H	0.143996	0.769122	0.377155
284	H	0.226693	0.874031	0.377038
285	H	0.12178	0.851817	0.377068
286	C	0.187109	0.905558	0.37364
287	C	0.215116	0.808713	0.707067
288	C	0.090251	0.780697	0.373756
289	O	0.24918	0.834096	0.365557
290	O	0.161727	0.914231	0.365397
291	O	0.081571	0.746633	0.365577
292	C	0.31908	0.62772	0.287923
293	C	0.355577	0.653628	0.287404
294	C	0.368138	0.690544	0.287866
295	C	0.34222	0.701122	0.287424
296	C	0.305303	0.676772	0.621208
297	C	0.294723	0.640275	0.287432
298	H	0.350732	0.727497	0.289942
299	H	0.268348	0.622419	0.289969
300	H	0.373439	0.645117	0.289959
301	C	0.308206	0.591268	0.294231
302	C	0.279724	0.687642	0.627553
303	C	0.404587	0.716126	0.2942
304	O	0.245677	0.662054	0.302099
305	O	0.333791	0.582807	0.302129
306	O	0.413034	0.750161	0.302146
307	C	0.227411	0.760869	0.356959
308	N	0.256494	0.781733	0.665028
309	C	0.276504	0.770477	0.643872
310	C	0.26689	0.734441	0.646819
311	N	0.238005	0.713547	0.338893
312	C	0.217954	0.72465	0.360341
313	H	0.298035	0.788193	0.625945
314	C	0.191397	0.700873	0.383307
315	N	0.168051	0.679886	0.403736
316	N	0.207699	0.774288	0.374872
317	H	0.185778	0.757317	0.389184
318	N	0.286983	0.722018	0.627809
319	H	0.308837	0.739689	0.613836
320	C	0.234967	0.965705	0.356906
321	N	0.21411	0.973932	0.664972
322	C	0.225368	0.505209	0.643849
323	C	0.261403	0.531632	0.646822
324	N	0.282291	0.523633	0.338896
325	C	0.27118	0.99247	0.360324
326	H	0.207664	0.509026	0.625896
327	C	0.294948	0.989679	0.383297
328	N	0.315926	0.987309	0.403736
329	N	0.221533	0.932567	0.374806
330	H	0.238494	0.927618	0.389148
331	N	0.273829	0.564151	0.627816
332	H	0.256161	0.568336	0.613839
333	C	0.030118	0.768415	0.356972
334	N	0.021899	0.739334	0.665035
335	C	0.490636	0.719333	0.643869
336	C	0.464216	0.728949	0.646819
337	N	0.472207	0.757831	0.338899
338	C	0.003362	0.77788	0.360348
339	H	0.486819	0.697803	0.625936
340	C	0.006135	0.804424	0.383341
341	N	0.008493	0.827759	0.403789
342	N	0.063248	0.788121	0.374892
343	H	0.068199	0.810038	0.389214
344	N	0.431702	0.708864	0.627803
345	H	0.427522	0.687019	0.613806
346	C	0.176057	0.868992	0.712622
347	C	0.139536	0.843179	0.712968
348	C	0.126818	0.806221	0.712702
349	C	0.152638	0.795518	0.713014
350	C	0.189595	0.81976	0.046033
351	C	0.200306	0.856286	0.713021
352	H	0.143996	0.769122	0.710489
353	H	0.226693	0.874031	0.71037
354	H	0.12178	0.851817	0.710403
355	C	0.187109	0.905558	0.706971
356	C	0.215116	0.808713	0.040402
357	C	0.090251	0.780697	0.707087
358	O	0.24918	0.834096	0.698891
359	O	0.161727	0.914231	0.698729
360	O	0.081571	0.746633	0.698908
361	C	0.31908	0.62772	0.621255
362	C	0.355577	0.653628	0.620736
363	C	0.368138	0.690544	0.621198
364	C	0.34222	0.701122	0.620756
365	C	0.305303	0.676772	0.954543
366	C	0.294723	0.640275	0.620766
367	H	0.350732	0.727497	0.623274
368	H	0.268348	0.622419	0.623301
369	H	0.373439	0.645117	0.623291
370	C	0.308206	0.591268	0.627563
371	C	0.279724	0.687642	0.960888
372	C	0.404587	0.716126	0.627534
373	O	0.245677	0.662054	0.635434
374	O	0.333791	0.582807	0.63546
375	O	0.413034	0.750161	0.63548
376	C	0.227411	0.760869	0.690293
377	N	0.256494	0.781733	0.998361
378	C	0.276504	0.770477	0.977207
379	C	0.26689	0.734441	0.980154
380	N	0.238005	0.713547	0.672224
381	C	0.217954	0.72465	0.693676
382	H	0.298035	0.788193	0.959277
383	C	0.191397	0.700873	0.716639
384	N	0.168051	0.679886	0.737067
385	N	0.207699	0.774288	0.708207
386	H	0.185778	0.757317	0.722516
387	N	0.286983	0.722018	0.961144
388	H	0.308837	0.739689	0.947167
389	C	0.234967	0.965705	0.690237
390	N	0.21411	0.973932	0.998306
391	C	0.225368	0.505209	0.97718
392	C	0.261403	0.531632	0.980157
393	N	0.282291	0.523633	0.672227
394	C	0.27118	0.99247	0.693659
395	H	0.207664	0.509026	0.95923
396	C	0.294948	0.989679	0.716632
397	N	0.315926	0.987309	0.737067
398	N	0.221533	0.932567	0.70814
399	H	0.238494	0.927618	0.722479
400	N	0.273829	0.564151	0.961147
401	H	0.256161	0.568336	0.947171
402	C	0.030118	0.768415	0.690307
403	N	0.021899	0.739334	0.998367
404	C	0.490636	0.719333	0.977203
405	C	0.464216	0.728949	0.98015
406	N	0.472207	0.757831	0.672231
407	C	0.003362	0.77788	0.693682
408	H	0.486819	0.697803	0.95927
409	C	0.006135	0.804424	0.716672
410	N	0.008493	0.827759	0.737123
411	N	0.063248	0.788121	0.708227
412	H	0.068199	0.810038	0.722546
413	N	0.431702	0.708864	0.961134
414	H	0.427522	0.687019	0.947137
415	C	0.676056	0.368991	0.045955
416	C	0.639535	0.343178	0.0463
417	C	0.626819	0.306222	0.046036
418	C	0.652638	0.29552	0.046349
419	C	0.689594	0.319758	0.379367
420	C	0.700305	0.356285	0.046353
421	H	0.643997	0.269124	0.043822
422	H	0.726695	0.374032	0.043704
423	H	0.621779	0.351816	0.043737
424	C	0.687109	0.405557	0.040305
425	C	0.715115	0.308711	0.373736
426	C	0.590251	0.280698	0.040421
427	O	0.74918	0.334098	0.032224
428	O	0.661727	0.414229	0.032064
429	O	0.581571	0.246633	0.032243
430	C	0.819081	0.12772	0.954589
431	C	0.855576	0.153627	0.954071
432	C	0.868137	0.190542	0.954533
433	C	0.842218	0.201121	0.954091
434	C	0.805302	0.176772	0.287875
435	C	0.794722	0.140274	0.954097
436	H	0.850733	0.227496	0.956609
437	H	0.768346	0.122417	0.956636
438	H	0.873439	0.145117	0.956626
439	C	0.808204	0.091266	0.960898
440	C	0.779724	0.187641	0.29422
441	C	0.904587	0.216125	0.960865
442	O	0.745677	0.162053	0.968765
443	O	0.833791	0.082807	0.968795
444	O	0.913033	0.25016	0.968812
445	C	0.727412	0.260868	0.023626
446	N	0.756494	0.281732	0.331694
447	C	0.776504	0.270478	0.31054
448	C	0.766889	0.234441	0.313486
449	N	0.738005	0.213547	0.005559
450	C	0.717954	0.22465	0.027008
451	H	0.798033	0.288191	0.292611
452	C	0.691398	0.200871	0.049974
453	N	0.66805	0.179885	0.070402
454	N	0.707697	0.274287	0.04154
455	H	0.685777	0.257316	0.055851
456	N	0.786982	0.222017	0.294476
457	H	0.808836	0.239687	0.280501
458	C	0.734967	0.465704	0.023571
459	N	0.714109	0.473931	0.331638
460	C	0.72537	0.005209	0.310514
461	C	0.761403	0.031631	0.313489
462	N	0.78229	0.023632	0.005563
463	C	0.771179	0.492469	0.026992
464	H	0.707664	0.009025	0.292563
465	C	0.794949	0.48968	0.049966
466	N	0.815926	0.487311	0.070402
467	N	0.721534	0.432568	0.041473
468	H	0.738494	0.427617	0.055814
469	N	0.773829	0.064149	0.294482
470	H	0.756161	0.068335	0.280505
471	C	0.530117	0.268413	0.02364
472	N	0.521899	0.239334	0.3317
473	C	0.990635	0.219332	0.310537
474	C	0.964217	0.22895	0.313485
475	N	0.972208	0.257831	0.005566
476	C	0.503361	0.277878	0.027015
477	H	0.986818	0.197804	0.292602
478	C	0.506135	0.304423	0.050006
479	N	0.508492	0.327758	0.070456
480	N	0.563247	0.28812	0.04156
481	H	0.5682	0.310039	0.05588
482	N	0.931702	0.208863	0.294468
483	H	0.927521	0.187018	0.280472
484	C	0.676056	0.368991	0.379288
485	C	0.639535	0.343178	0.379633
486	C	0.626819	0.306222	0.379371
487	C	0.652638	0.29552	0.379683
488	C	0.689594	0.319758	0.712699
489	C	0.700305	0.356285	0.379686
490	H	0.643997	0.269124	0.377155
491	H	0.726695	0.374032	0.377038
492	H	0.621779	0.351816	0.377068
493	C	0.687109	0.405557	0.37364
494	C	0.715115	0.308711	0.707067
495	C	0.590251	0.280698	0.373756
496	O	0.74918	0.334098	0.365557
497	O	0.661727	0.414229	0.365397
498	O	0.581571	0.246633	0.365577
499	C	0.819081	0.12772	0.287923
500	C	0.855576	0.153627	0.287404
501	C	0.868137	0.190542	0.287866
502	C	0.842218	0.201121	0.287424
503	C	0.805302	0.176772	0.621208
504	C	0.794722	0.140274	0.287432
505	H	0.850733	0.227496	0.289942
506	H	0.768346	0.122417	0.289969
507	H	0.873439	0.145117	0.289959
508	C	0.808204	0.091266	0.294231
509	C	0.779724	0.187641	0.627553
510	C	0.904587	0.216125	0.2942
511	O	0.745677	0.162053	0.302099
512	O	0.833791	0.082807	0.302129
513	O	0.913033	0.25016	0.302146
514	C	0.727412	0.260868	0.356959
515	N	0.756494	0.281732	0.665028
516	C	0.776504	0.270478	0.643872
517	C	0.766889	0.234441	0.646819
518	N	0.738005	0.213547	0.338893
519	C	0.717954	0.22465	0.360341
520	H	0.798033	0.288191	0.625945
521	C	0.691398	0.200871	0.383307
522	N	0.66805	0.179885	0.403736
523	N	0.707697	0.274287	0.374872
524	H	0.685777	0.257316	0.389184
525	N	0.786982	0.222017	0.627809
526	H	0.808836	0.239687	0.613836
527	C	0.734967	0.465704	0.356906
528	N	0.714109	0.473931	0.664972
529	C	0.72537	0.005209	0.643849
530	C	0.761403	0.031631	0.646822
531	N	0.78229	0.023632	0.338896
532	C	0.771179	0.492469	0.360324
533	H	0.707664	0.009025	0.625896
534	C	0.794949	0.48968	0.383297
535	N	0.815926	0.487311	0.403736
536	N	0.721534	0.432568	0.374806
537	H	0.738494	0.427617	0.389148
538	N	0.773829	0.064149	0.627816
539	H	0.756161	0.068335	0.613839
540	C	0.530117	0.268413	0.356972
541	N	0.521899	0.239334	0.665035
542	C	0.990635	0.219332	0.643869
543	C	0.964217	0.22895	0.646819
544	N	0.972208	0.257831	0.338899
545	C	0.503361	0.277878	0.360348
546	H	0.986818	0.197804	0.625936
547	C	0.506135	0.304423	0.383341
548	N	0.508492	0.327758	0.403789
549	N	0.563247	0.28812	0.374892
550	H	0.5682	0.310039	0.389214
551	N	0.931702	0.208863	0.627803
552	H	0.927521	0.187018	0.613806
553	C	0.676056	0.368991	0.712622
554	C	0.639535	0.343178	0.712968
555	C	0.626819	0.306222	0.712702
556	C	0.652638	0.29552	0.713014
557	C	0.689594	0.319758	0.046033
558	C	0.700305	0.356285	0.713021
559	H	0.643997	0.269124	0.710489
560	H	0.726695	0.374032	0.71037
561	H	0.621779	0.351816	0.710403
562	C	0.687109	0.405557	0.706971
563	C	0.715115	0.308711	0.040402
564	C	0.590251	0.280698	0.707087
565	O	0.74918	0.334098	0.698891
566	O	0.661727	0.414229	0.698729
567	O	0.581571	0.246633	0.698908
568	C	0.819081	0.12772	0.621255
569	C	0.855576	0.153627	0.620736
570	C	0.868137	0.190542	0.621198
571	C	0.842218	0.201121	0.620756
572	C	0.805302	0.176772	0.954543
573	C	0.794722	0.140274	0.620766
574	H	0.850733	0.227496	0.623274
575	H	0.768346	0.122417	0.623301
576	H	0.873439	0.145117	0.623291
577	C	0.808204	0.091266	0.627563
578	C	0.779724	0.187641	0.960888
579	C	0.904587	0.216125	0.627534
580	O	0.745677	0.162053	0.635434
581	O	0.833791	0.082807	0.63546
582	O	0.913033	0.25016	0.63548
583	C	0.727412	0.260868	0.690293
584	N	0.756494	0.281732	0.998361
585	C	0.776504	0.270478	0.977207
586	C	0.766889	0.234441	0.980154
587	N	0.738005	0.213547	0.672224
588	C	0.717954	0.22465	0.693676
589	H	0.798033	0.288191	0.959277
590	C	0.691398	0.200871	0.716639
591	N	0.66805	0.179885	0.737067
592	N	0.707697	0.274287	0.708207
593	H	0.685777	0.257316	0.722516
594	N	0.786982	0.222017	0.961144
595	H	0.808836	0.239687	0.947167
596	C	0.734967	0.465704	0.690237
597	N	0.714109	0.473931	0.998306
598	C	0.72537	0.005209	0.97718
599	C	0.761403	0.031631	0.980157
600	N	0.78229	0.023632	0.672227
601	C	0.771179	0.492469	0.693659
602	H	0.707664	0.009025	0.95923
603	C	0.794949	0.48968	0.716632
604	N	0.815926	0.487311	0.737067
605	N	0.721534	0.432568	0.70814
606	H	0.738494	0.427617	0.722479
607	N	0.773829	0.064149	0.961147
608	H	0.756161	0.068335	0.947171
609	C	0.530117	0.268413	0.690307
610	N	0.521899	0.239334	0.998367
611	C	0.990635	0.219332	0.977203
612	C	0.964217	0.22895	0.98015
613	N	0.972208	0.257831	0.672231
614	C	0.503361	0.277878	0.693682
615	H	0.986818	0.197804	0.95927
616	C	0.506135	0.304423	0.716672
617	N	0.508492	0.327758	0.737123
618	N	0.563247	0.28812	0.708227
619	H	0.5682	0.310039	0.722546
620	N	0.931702	0.208863	0.961134
621	H	0.927521	0.187018	0.947137
622	C	0.676056	0.868992	0.045955
623	C	0.639535	0.843179	0.0463
624	C	0.626818	0.806221	0.046036
625	C	0.652637	0.795518	0.046349
626	C	0.689595	0.81976	0.379367
627	C	0.700304	0.856286	0.046353
628	H	0.643997	0.769122	0.043822
629	H	0.726693	0.874031	0.043704
630	H	0.62178	0.851817	0.043737
631	C	0.687108	0.905558	0.040305
632	C	0.715114	0.808713	0.373736
633	C	0.59025	0.780697	0.040421
634	O	0.749181	0.834096	0.032224
635	O	0.661727	0.914231	0.032064
636	O	0.581572	0.746633	0.032243
637	C	0.81908	0.62772	0.954589
638	C	0.855578	0.653628	0.954071
639	C	0.868139	0.690544	0.954533
640	C	0.84222	0.701122	0.954091
641	C	0.805303	0.676772	0.287875
642	C	0.794721	0.640275	0.954097
643	H	0.850732	0.727497	0.956609
644	H	0.768348	0.622419	0.956636
645	H	0.873438	0.645117	0.956626
646	C	0.808206	0.591268	0.960898
647	C	0.779723	0.687642	0.29422
648	C	0.904586	0.716126	0.960865
649	O	0.745676	0.662054	0.968765
650	O	0.833791	0.582807	0.968795
651	O	0.913035	0.750161	0.968812
652	C	0.727411	0.760869	0.023626
653	N	0.756493	0.781733	0.331694
654	C	0.776502	0.770477	0.31054
655	C	0.76689	0.734441	0.313486
656	N	0.738004	0.713547	0.005559
657	C	0.717953	0.72465	0.027008
658	H	0.798035	0.788193	0.292611
659	C	0.691397	0.700873	0.049974
660	N	0.66805	0.679886	0.070402
661	N	0.707699	0.774288	0.04154
662	H	0.685779	0.757317	0.055851
663	N	0.786984	0.722018	0.294476
664	H	0.808836	0.739689	0.280501
665	C	0.734966	0.965705	0.023571
666	N	0.714109	0.973932	0.331638
667	C	0.725368	0.505209	0.310514
668	C	0.761403	0.531632	0.313489
669	N	0.782289	0.523633	0.005563
670	C	0.77118	0.99247	0.026992
671	H	0.707663	0.509026	0.292563
672	C	0.794947	0.989679	0.049966
673	N	0.815926	0.987309	0.070402
674	N	0.721532	0.932567	0.041473
675	H	0.738493	0.927618	0.055814
676	N	0.773829	0.564151	0.294482
677	H	0.75616	0.568336	0.280505
678	C	0.530117	0.768415	0.02364
679	N	0.521898	0.739334	0.3317
680	C	0.990636	0.719333	0.310537
681	C	0.964216	0.728949	0.313485
682	N	0.972207	0.757831	0.005566
683	C	0.503362	0.77788	0.027015
684	H	0.986817	0.697803	0.292602
685	C	0.506136	0.804424	0.050006
686	N	0.508491	0.827759	0.070456
687	N	0.563247	0.788121	0.04156
688	H	0.568199	0.810038	0.05588
689	N	0.931701	0.708864	0.294468
690	H	0.927523	0.687019	0.280472
691	C	0.676056	0.868992	0.379288
692	C	0.639535	0.843179	0.379633
693	C	0.626818	0.806221	0.379371
694	C	0.652637	0.795518	0.379683
695	C	0.689595	0.81976	0.712699
696	C	0.700304	0.856286	0.379686
697	H	0.643997	0.769122	0.377155
698	H	0.726693	0.874031	0.377038
699	H	0.62178	0.851817	0.377068
700	C	0.687108	0.905558	0.37364
701	C	0.715114	0.808713	0.707067
702	C	0.59025	0.780697	0.373756
703	O	0.749181	0.834096	0.365557
704	O	0.661727	0.914231	0.365397
705	O	0.581572	0.746633	0.365577
706	C	0.81908	0.62772	0.287923
707	C	0.855578	0.653628	0.287404
708	C	0.868139	0.690544	0.287866
709	C	0.84222	0.701122	0.287424
710	C	0.805303	0.676772	0.621208
711	C	0.794721	0.640275	0.287432
712	H	0.850732	0.727497	0.289942
713	H	0.768348	0.622419	0.289969
714	H	0.873438	0.645117	0.289959
715	C	0.808206	0.591268	0.294231
716	C	0.779723	0.687642	0.627553
717	C	0.904586	0.716126	0.2942
718	O	0.745676	0.662054	0.302099
719	O	0.833791	0.582807	0.302129
720	O	0.913035	0.750161	0.302146
721	C	0.727411	0.760869	0.356959
722	N	0.756493	0.781733	0.665028
723	C	0.776502	0.770477	0.643872
724	C	0.76689	0.734441	0.646819
725	N	0.738004	0.713547	0.338893
726	C	0.717953	0.72465	0.360341
727	H	0.798035	0.788193	0.625945
728	C	0.691397	0.700873	0.383307
729	N	0.66805	0.679886	0.403736
730	N	0.707699	0.774288	0.374872
731	H	0.685779	0.757317	0.389184
732	N	0.786984	0.722018	0.627809
733	H	0.808836	0.739689	0.613836
734	C	0.734966	0.965705	0.356906
735	N	0.714109	0.973932	0.664972
736	C	0.725368	0.505209	0.643849
737	C	0.761403	0.531632	0.646822
738	N	0.782289	0.523633	0.338896
739	C	0.77118	0.99247	0.360324
740	H	0.707663	0.509026	0.625896
741	C	0.794947	0.989679	0.383297
742	N	0.815926	0.987309	0.403736
743	N	0.721532	0.932567	0.374806
744	H	0.738493	0.927618	0.389148
745	N	0.773829	0.564151	0.627816
746	H	0.75616	0.568336	0.613839
747	C	0.530117	0.768415	0.356972
748	N	0.521898	0.739334	0.665035
749	C	0.990636	0.719333	0.643869
750	C	0.964216	0.728949	0.646819
751	N	0.972207	0.757831	0.338899
752	C	0.503362	0.77788	0.360348
753	H	0.986817	0.697803	0.625936
754	C	0.506136	0.804424	0.383341
755	N	0.508491	0.827759	0.403789
756	N	0.563247	0.788121	0.374892
757	H	0.568199	0.810038	0.389214
758	N	0.931701	0.708864	0.627803
759	H	0.927523	0.687019	0.613806
760	C	0.676056	0.868992	0.712622
761	C	0.639535	0.843179	0.712968
762	C	0.626818	0.806221	0.712702
763	C	0.652637	0.795518	0.713014
764	C	0.689595	0.81976	0.046033
765	C	0.700304	0.856286	0.713021
766	H	0.643997	0.769122	0.710489
767	H	0.726693	0.874031	0.71037
768	H	0.62178	0.851817	0.710403
769	C	0.687108	0.905558	0.706971
770	C	0.715114	0.808713	0.040402
771	C	0.59025	0.780697	0.707087
772	O	0.749181	0.834096	0.698891
773	O	0.661727	0.914231	0.698729
774	O	0.581572	0.746633	0.698908
775	C	0.81908	0.62772	0.621255
776	C	0.855578	0.653628	0.620736
777	C	0.868139	0.690544	0.621198
778	C	0.84222	0.701122	0.620756
779	C	0.805303	0.676772	0.954543
780	C	0.794721	0.640275	0.620766
781	H	0.850732	0.727497	0.623274
782	H	0.768348	0.622419	0.623301
783	H	0.873438	0.645117	0.623291
784	C	0.808206	0.591268	0.627563
785	C	0.779723	0.687642	0.960888
786	C	0.904586	0.716126	0.627534
787	O	0.745676	0.662054	0.635434
788	O	0.833791	0.582807	0.63546
789	O	0.913035	0.750161	0.63548
790	C	0.727411	0.760869	0.690293
791	N	0.756493	0.781733	0.998361
792	C	0.776502	0.770477	0.977207
793	C	0.76689	0.734441	0.980154
794	N	0.738004	0.713547	0.672224
795	C	0.717953	0.72465	0.693676
796	H	0.798035	0.788193	0.959277
797	C	0.691397	0.700873	0.716639
798	N	0.66805	0.679886	0.737067
799	N	0.707699	0.774288	0.708207
800	H	0.685779	0.757317	0.722516
801	N	0.786984	0.722018	0.961144
802	H	0.808836	0.739689	0.947167
803	C	0.734966	0.965705	0.690237
804	N	0.714109	0.973932	0.998306
805	C	0.725368	0.505209	0.97718
806	C	0.761403	0.531632	0.980157
807	N	0.782289	0.523633	0.672227
808	C	0.77118	0.99247	0.693659
809	H	0.707663	0.509026	0.95923
810	C	0.794947	0.989679	0.716632
811	N	0.815926	0.987309	0.737067
812	N	0.721532	0.932567	0.70814
813	H	0.738493	0.927618	0.722479
814	N	0.773829	0.564151	0.961147
815	H	0.75616	0.568336	0.947171
816	C	0.530117	0.768415	0.690307
817	N	0.521898	0.739334	0.998367
818	C	0.990636	0.719333	0.977203
819	C	0.964216	0.728949	0.98015
820	N	0.972207	0.757831	0.672231
821	C	0.503362	0.77788	0.693682
822	H	0.986817	0.697803	0.95927
823	C	0.506136	0.804424	0.716672
824	N	0.508491	0.827759	0.737123
825	N	0.563247	0.788121	0.708227
826	H	0.568199	0.810038	0.722546
827	N	0.931701	0.708864	0.961134
828	H	0.927523	0.687019	0.947137
