data_C396H216N144O144_2018-02-15_10:32:46
#******************************************
#
# CIF file created by Zeo++
# Zeo++ is an open source package to
# analyze microporous materials
#
#*******************************************

_cell_length_a		43.5401   
_cell_length_b		43.54   
_cell_length_c		30.0998   
_cell_angle_alpha		90   
_cell_angle_beta		90   
_cell_angle_gamma		120   

_symmetry_space_group_name_H-M		'P1'
_symmetry_Int_Tables_number		1
_symmetry_cell_setting		Monoclinic

loop_
_symmetry_equiv_pos_as_xyz
'+x,+y,+z'

loop_
_atom_site_label
_atom_site_type_symbol
_atom_site_fract_x
_atom_site_fract_y
_atom_site_fract_z
1	C	0.176312	0.369048	0.956836
2	C	0.139688	0.343429	0.956321
3	C	0.126768	0.306425	0.956713
4	C	0.152394	0.295425	0.956245
5	C	0.1894	0.31951	0.290061
6	C	0.200407	0.35614	0.956271
7	H	0.143632	0.268981	0.958839
8	H	0.226846	0.373814	0.959025
9	H	0.122006	0.352189	0.958976
10	C	0.187653	0.405585	0.963484
11	C	0.214608	0.308176	0.296658
12	C	0.090225	0.281207	0.963281
13	O	0.248687	0.333412	0.971972
14	O	0.162421	0.414422	0.972185
15	O	0.081383	0.247127	0.971909
16	C	0.319884	0.127872	0.046429
17	C	0.356198	0.154373	0.046676
18	C	0.367995	0.191178	0.046459
19	C	0.341485	0.200983	0.046627
20	C	0.30468	0.175979	0.379766
21	C	0.294873	0.139664	0.046637
22	H	0.349478	0.227263	0.04402
23	H	0.268589	0.121378	0.04403
24	H	0.374485	0.146381	0.044067
25	C	0.309652	0.091445	0.041281
26	C	0.27849	0.186208	0.374537
27	C	0.404416	0.217373	0.041259
28	O	0.244748	0.160447	0.032027
29	O	0.335412	0.083458	0.03213
30	O	0.412393	0.251113	0.032072
31	C	0.265105	0.233674	0.026728
32	N	0.237148	0.2134	0.332819
33	C	0.217455	0.224938	0.311399
34	C	0.226447	0.260718	0.315908
35	N	0.254025	0.280846	0.01021
36	C	0.2738	0.269586	0.032305
37	H	0.196834	0.207717	0.291755
38	C	0.300369	0.293467	0.060311
39	O	0.319031	0.323801	0.046859
40	O	0.296963	0.290826	0.101127
41	H	0.282073	0.27118	0.115581
42	N	0.206981	0.273659	0.296328
43	H	0.185481	0.256386	0.281206
44	N	0.285005	0.220288	0.044171
45	H	0.306553	0.237091	0.05941
46	C	0.262193	0.030571	0.026911
47	N	0.282452	0.022893	0.332962
48	C	0.270906	0.491657	0.311549
49	C	0.235124	0.464874	0.316065
50	N	0.21501	0.472324	0.010394
51	C	0.22629	0.003345	0.032522
52	H	0.28811	0.488271	0.291852
53	C	0.202379	0.006005	0.060478
54	O	0.171882	0.494126	0.047577
55	O	0.205345	0.005679	0.101331
56	H	0.225094	0.010606	0.115661
57	N	0.222168	0.432474	0.296462
58	H	0.239432	0.428252	0.2813
59	N	0.275575	0.063879	0.044274
60	H	0.258767	0.068636	0.059484
61	C	0.465277	0.230772	0.026817
62	N	0.472947	0.258716	0.332889
63	C	0.004172	0.278401	0.311447
64	C	0.030943	0.269379	0.315901
65	N	0.02351	0.241823	0.010236
66	C	0.492502	0.22209	0.032398
67	H	0.007555	0.299	0.29177
68	C	0.489857	0.195523	0.060349
69	O	0.001718	0.176895	0.047425
70	O	0.490222	0.198829	0.101202
71	H	0.485312	0.213658	0.115544
72	N	0.06334	0.28884	0.296301
73	H	0.067568	0.310342	0.28118
74	N	0.431986	0.210864	0.044236
75	H	0.427237	0.189309	0.059457
76	C	0.176312	0.369048	0.290168
77	C	0.139688	0.343429	0.289652
78	C	0.126768	0.306425	0.290047
79	C	0.152394	0.295425	0.289576
80	C	0.1894	0.31951	0.623396
81	C	0.200407	0.35614	0.289603
82	H	0.143632	0.268981	0.292172
83	H	0.226846	0.373814	0.292358
84	H	0.122006	0.352189	0.292308
85	C	0.187653	0.405585	0.296816
86	C	0.214608	0.308176	0.62999
87	C	0.090225	0.281207	0.296615
88	O	0.248687	0.333412	0.305306
89	O	0.162421	0.414422	0.305518
90	O	0.081383	0.247127	0.305241
91	C	0.319884	0.127872	0.379763
92	C	0.356198	0.154373	0.380009
93	C	0.367995	0.191178	0.379793
94	C	0.341485	0.200983	0.379962
95	C	0.30468	0.175979	0.7131
96	C	0.294873	0.139664	0.379969
97	H	0.349478	0.227263	0.377354
98	H	0.268589	0.121378	0.377364
99	H	0.374485	0.146381	0.377401
100	C	0.309652	0.091445	0.374613
101	C	0.27849	0.186208	0.707871
102	C	0.404416	0.217373	0.374593
103	O	0.244748	0.160447	0.365361
104	O	0.335412	0.083458	0.365464
105	O	0.412393	0.251113	0.365404
106	C	0.265105	0.233674	0.360062
107	N	0.237148	0.2134	0.666153
108	C	0.217455	0.224938	0.644731
109	C	0.226447	0.260718	0.649243
110	N	0.254025	0.280846	0.343543
111	C	0.2738	0.269586	0.36564
112	H	0.196834	0.207717	0.62509
113	C	0.300369	0.293467	0.393643
114	O	0.319031	0.323801	0.380192
115	O	0.296963	0.290826	0.434461
116	H	0.282073	0.27118	0.448916
117	N	0.206981	0.273659	0.629661
118	H	0.185481	0.256386	0.614538
119	N	0.285005	0.220288	0.377504
120	H	0.306553	0.237091	0.392743
121	C	0.262193	0.030571	0.360245
122	N	0.282452	0.022893	0.666296
123	C	0.270906	0.491657	0.644884
124	C	0.235124	0.464874	0.649399
125	N	0.21501	0.472324	0.34373
126	C	0.22629	0.003345	0.365856
127	H	0.28811	0.488271	0.625186
128	C	0.202379	0.006005	0.393813
129	O	0.171882	0.494126	0.380912
130	O	0.205345	0.005679	0.434664
131	H	0.225094	0.010606	0.448996
132	N	0.222168	0.432474	0.629794
133	H	0.239432	0.428252	0.614635
134	N	0.275575	0.063879	0.377607
135	H	0.258767	0.068636	0.392819
136	C	0.465277	0.230772	0.360152
137	N	0.472947	0.258716	0.66622
138	C	0.004172	0.278401	0.644781
139	C	0.030943	0.269379	0.649236
140	N	0.02351	0.241823	0.34357
141	C	0.492502	0.22209	0.36573
142	H	0.007555	0.299	0.625103
143	C	0.489857	0.195523	0.393683
144	O	0.001718	0.176895	0.38076
145	O	0.490222	0.198829	0.434537
146	H	0.485312	0.213658	0.448876
147	N	0.06334	0.28884	0.629635
148	H	0.067568	0.310342	0.614515
149	N	0.431986	0.210864	0.37757
150	H	0.427237	0.189309	0.39279
151	C	0.176312	0.369048	0.623502
152	C	0.139688	0.343429	0.622987
153	C	0.126768	0.306425	0.623379
154	C	0.152394	0.295425	0.62291
155	C	0.1894	0.31951	0.95673
156	C	0.200407	0.35614	0.622937
157	H	0.143632	0.268981	0.625505
158	H	0.226846	0.373814	0.625691
159	H	0.122006	0.352189	0.625641
160	C	0.187653	0.405585	0.63015
161	C	0.214608	0.308176	0.963324
162	C	0.090225	0.281207	0.629947
163	O	0.248687	0.333412	0.638641
164	O	0.162421	0.414422	0.638851
165	O	0.081383	0.247127	0.638575
166	C	0.319884	0.127872	0.713097
167	C	0.356198	0.154373	0.713343
168	C	0.367995	0.191178	0.713127
169	C	0.341485	0.200983	0.713293
170	C	0.30468	0.175979	0.046433
171	C	0.294873	0.139664	0.713303
172	H	0.349478	0.227263	0.710688
173	H	0.268589	0.121378	0.710698
174	H	0.374485	0.146381	0.710735
175	C	0.309652	0.091445	0.707948
176	C	0.27849	0.186208	0.041205
177	C	0.404416	0.217373	0.707928
178	O	0.244748	0.160447	0.698695
179	O	0.335412	0.083458	0.698798
180	O	0.412393	0.251113	0.698738
181	C	0.265105	0.233674	0.693396
182	N	0.237148	0.2134	0.999486
183	C	0.217455	0.224938	0.978065
184	C	0.226447	0.260718	0.982577
185	N	0.254025	0.280846	0.676878
186	C	0.2738	0.269586	0.698974
187	H	0.196834	0.207717	0.958424
188	C	0.300369	0.293467	0.726978
189	O	0.319031	0.323801	0.713526
190	O	0.296963	0.290826	0.767795
191	H	0.282073	0.27118	0.782247
192	N	0.206981	0.273659	0.962995
193	H	0.185481	0.256386	0.947872
194	N	0.285005	0.220288	0.710838
195	H	0.306553	0.237091	0.726077
196	C	0.262193	0.030571	0.693579
197	N	0.282452	0.022893	0.999628
198	C	0.270906	0.491657	0.978218
199	C	0.235124	0.464874	0.982733
200	N	0.21501	0.472324	0.67706
201	C	0.22629	0.003345	0.69919
202	H	0.28811	0.488271	0.95852
203	C	0.202379	0.006005	0.727147
204	O	0.171882	0.494126	0.714243
205	O	0.205345	0.005679	0.767998
206	H	0.225094	0.010606	0.782327
207	N	0.222168	0.432474	0.963128
208	H	0.239432	0.428252	0.947965
209	N	0.275575	0.063879	0.710941
210	H	0.258767	0.068636	0.72615
211	C	0.465277	0.230772	0.693486
212	N	0.472947	0.258716	0.999554
213	C	0.004172	0.278401	0.978115
214	C	0.030943	0.269379	0.98257
215	N	0.02351	0.241823	0.676904
216	C	0.492502	0.22209	0.699064
217	H	0.007555	0.299	0.958437
218	C	0.489857	0.195523	0.727017
219	O	0.001718	0.176895	0.714094
220	O	0.490222	0.198829	0.767868
221	H	0.485312	0.213658	0.78221
222	N	0.06334	0.28884	0.962969
223	H	0.067568	0.310342	0.947846
224	N	0.431986	0.210864	0.710904
225	H	0.427237	0.189309	0.726124
226	C	0.176313	0.869049	0.956836
227	C	0.139689	0.84343	0.956318
228	C	0.126768	0.806426	0.956713
229	C	0.152393	0.795425	0.956245
230	C	0.1894	0.819511	0.290061
231	C	0.200407	0.856141	0.956271
232	H	0.143632	0.768982	0.958839
233	H	0.226847	0.873814	0.959025
234	H	0.122006	0.85219	0.958976
235	C	0.187652	0.905586	0.963484
236	C	0.214608	0.808176	0.296658
237	C	0.090225	0.781208	0.963281
238	O	0.248686	0.83341	0.971972
239	O	0.162421	0.91442	0.972185
240	O	0.081382	0.747129	0.971909
241	C	0.319883	0.627872	0.046429
242	C	0.356199	0.654374	0.046676
243	C	0.367996	0.691179	0.046459
244	C	0.341486	0.700983	0.046627
245	C	0.30468	0.67598	0.379766
246	C	0.294874	0.639665	0.046637
247	H	0.34948	0.727265	0.04402
248	H	0.268589	0.621379	0.04403
249	H	0.374485	0.64638	0.044067
250	C	0.309651	0.591446	0.041281
251	C	0.27849	0.686209	0.374537
252	C	0.404416	0.717373	0.041259
253	O	0.244747	0.660447	0.032027
254	O	0.335412	0.583458	0.03213
255	O	0.412395	0.751115	0.032072
256	C	0.265106	0.733675	0.026728
257	N	0.237148	0.7134	0.332819
258	C	0.217455	0.724939	0.311399
259	C	0.226446	0.760718	0.315908
260	N	0.254025	0.780847	0.01021
261	C	0.2738	0.769586	0.032305
262	H	0.196833	0.707717	0.291755
263	C	0.300369	0.793468	0.060311
264	O	0.319031	0.823802	0.046859
265	O	0.296963	0.790827	0.101127
266	H	0.282073	0.77118	0.115581
267	N	0.206981	0.77366	0.296328
268	H	0.185481	0.756387	0.281206
269	N	0.285006	0.72029	0.044171
270	H	0.306553	0.737091	0.05941
271	C	0.262194	0.530571	0.026911
272	N	0.282451	0.522893	0.332962
273	C	0.270906	0.991658	0.311549
274	C	0.235124	0.964875	0.316065
275	N	0.215011	0.972325	0.010394
276	C	0.22629	0.503345	0.032522
277	H	0.28811	0.988271	0.291852
278	C	0.202379	0.506005	0.060478
279	O	0.171882	0.994127	0.047577
280	O	0.205345	0.505679	0.101331
281	H	0.225094	0.510606	0.115661
282	N	0.222167	0.932475	0.296462
283	H	0.239432	0.928253	0.2813
284	N	0.275574	0.56388	0.044274
285	H	0.258767	0.568636	0.059484
286	C	0.465277	0.730774	0.026817
287	N	0.472947	0.758716	0.332889
288	C	0.004171	0.778402	0.311447
289	C	0.030944	0.76938	0.315901
290	N	0.02351	0.741825	0.010236
291	C	0.492502	0.722091	0.032398
292	H	0.007555	0.799	0.29177
293	C	0.489856	0.695523	0.060349
294	O	0.001718	0.676895	0.047425
295	O	0.490221	0.69883	0.101202
296	H	0.485312	0.71366	0.115544
297	N	0.06334	0.78884	0.296301
298	H	0.067569	0.810343	0.28118
299	N	0.431985	0.710865	0.044236
300	H	0.427237	0.689309	0.059457
301	C	0.176313	0.869049	0.290168
302	C	0.139689	0.84343	0.289652
303	C	0.126768	0.806426	0.290047
304	C	0.152393	0.795425	0.289576
305	C	0.1894	0.819511	0.623396
306	C	0.200407	0.856141	0.289603
307	H	0.143632	0.768982	0.292172
308	H	0.226847	0.873814	0.292358
309	H	0.122006	0.85219	0.292308
310	C	0.187652	0.905586	0.296816
311	C	0.214608	0.808176	0.62999
312	C	0.090225	0.781208	0.296615
313	O	0.248686	0.83341	0.305306
314	O	0.162421	0.91442	0.305518
315	O	0.081382	0.747129	0.305241
316	C	0.319883	0.627872	0.379763
317	C	0.356199	0.654374	0.380009
318	C	0.367996	0.691179	0.379793
319	C	0.341486	0.700983	0.379962
320	C	0.30468	0.67598	0.7131
321	C	0.294874	0.639665	0.379969
322	H	0.34948	0.727265	0.377354
323	H	0.268589	0.621379	0.377364
324	H	0.374485	0.64638	0.377401
325	C	0.309651	0.591446	0.374613
326	C	0.27849	0.686209	0.707871
327	C	0.404416	0.717373	0.374593
328	O	0.244747	0.660447	0.365361
329	O	0.335412	0.583458	0.365464
330	O	0.412395	0.751115	0.365404
331	C	0.265106	0.733675	0.360062
332	N	0.237148	0.7134	0.666153
333	C	0.217455	0.724939	0.644731
334	C	0.226446	0.760718	0.649243
335	N	0.254025	0.780847	0.343543
336	C	0.2738	0.769586	0.36564
337	H	0.196833	0.707717	0.62509
338	C	0.300369	0.793468	0.393643
339	O	0.319031	0.823802	0.380192
340	O	0.296963	0.790827	0.434461
341	H	0.282073	0.77118	0.448916
342	N	0.206981	0.77366	0.629661
343	H	0.185481	0.756387	0.614538
344	N	0.285006	0.72029	0.377504
345	H	0.306553	0.737091	0.392743
346	C	0.262194	0.530571	0.360245
347	N	0.282451	0.522893	0.666296
348	C	0.270906	0.991658	0.644884
349	C	0.235124	0.964875	0.649399
350	N	0.215011	0.972325	0.34373
351	C	0.22629	0.503345	0.365856
352	H	0.28811	0.988271	0.625186
353	C	0.202379	0.506005	0.393813
354	O	0.171882	0.994127	0.380912
355	O	0.205345	0.505679	0.434664
356	H	0.225094	0.510606	0.448996
357	N	0.222167	0.932475	0.629794
358	H	0.239432	0.928253	0.614635
359	N	0.275574	0.56388	0.377607
360	H	0.258767	0.568636	0.392819
361	C	0.465277	0.730774	0.360152
362	N	0.472947	0.758716	0.66622
363	C	0.004171	0.778402	0.644781
364	C	0.030944	0.76938	0.649236
365	N	0.02351	0.741825	0.34357
366	C	0.492502	0.722091	0.36573
367	H	0.007555	0.799	0.625103
368	C	0.489856	0.695523	0.393683
369	O	0.001718	0.676895	0.38076
370	O	0.490221	0.69883	0.434537
371	H	0.485312	0.71366	0.448876
372	N	0.06334	0.78884	0.629635
373	H	0.067569	0.810343	0.614515
374	N	0.431985	0.710865	0.37757
375	H	0.427237	0.689309	0.39279
376	C	0.176313	0.869049	0.623502
377	C	0.139689	0.84343	0.622987
378	C	0.126768	0.806426	0.623379
379	C	0.152393	0.795425	0.62291
380	C	0.1894	0.819511	0.95673
381	C	0.200407	0.856141	0.622937
382	H	0.143632	0.768982	0.625505
383	H	0.226847	0.873814	0.625691
384	H	0.122006	0.85219	0.625641
385	C	0.187652	0.905586	0.63015
386	C	0.214608	0.808176	0.963324
387	C	0.090225	0.781208	0.629947
388	O	0.248686	0.83341	0.638641
389	O	0.162421	0.91442	0.638851
390	O	0.081382	0.747129	0.638575
391	C	0.319883	0.627872	0.713097
392	C	0.356199	0.654374	0.713343
393	C	0.367996	0.691179	0.713127
394	C	0.341486	0.700983	0.713293
395	C	0.30468	0.67598	0.046433
396	C	0.294874	0.639665	0.713303
397	H	0.34948	0.727265	0.710688
398	H	0.268589	0.621379	0.710698
399	H	0.374485	0.64638	0.710735
400	C	0.309651	0.591446	0.707948
401	C	0.27849	0.686209	0.041205
402	C	0.404416	0.717373	0.707928
403	O	0.244747	0.660447	0.698695
404	O	0.335412	0.583458	0.698798
405	O	0.412395	0.751115	0.698738
406	C	0.265106	0.733675	0.693396
407	N	0.237148	0.7134	0.999486
408	C	0.217455	0.724939	0.978065
409	C	0.226446	0.760718	0.982577
410	N	0.254025	0.780847	0.676878
411	C	0.2738	0.769586	0.698974
412	H	0.196833	0.707717	0.958424
413	C	0.300369	0.793468	0.726978
414	O	0.319031	0.823802	0.713526
415	O	0.296963	0.790827	0.767795
416	H	0.282073	0.77118	0.782247
417	N	0.206981	0.77366	0.962995
418	H	0.185481	0.756387	0.947872
419	N	0.285006	0.72029	0.710838
420	H	0.306553	0.737091	0.726077
421	C	0.262194	0.530571	0.693579
422	N	0.282451	0.522893	0.999628
423	C	0.270906	0.991658	0.978218
424	C	0.235124	0.964875	0.982733
425	N	0.215011	0.972325	0.67706
426	C	0.22629	0.503345	0.69919
427	H	0.28811	0.988271	0.95852
428	C	0.202379	0.506005	0.727147
429	O	0.171882	0.994127	0.714243
430	O	0.205345	0.505679	0.767998
431	H	0.225094	0.510606	0.782327
432	N	0.222167	0.932475	0.963128
433	H	0.239432	0.928253	0.947965
434	N	0.275574	0.56388	0.710941
435	H	0.258767	0.568636	0.72615
436	C	0.465277	0.730774	0.693486
437	N	0.472947	0.758716	0.999554
438	C	0.004171	0.778402	0.978115
439	C	0.030944	0.76938	0.98257
440	N	0.02351	0.741825	0.676904
441	C	0.492502	0.722091	0.699064
442	H	0.007555	0.799	0.958437
443	C	0.489856	0.695523	0.727017
444	O	0.001718	0.676895	0.714094
445	O	0.490221	0.69883	0.767868
446	H	0.485312	0.71366	0.78221
447	N	0.06334	0.78884	0.962969
448	H	0.067569	0.810343	0.947846
449	N	0.431985	0.710865	0.710904
450	H	0.427237	0.689309	0.726124
451	C	0.676312	0.369048	0.956836
452	C	0.639687	0.343429	0.956321
453	C	0.626769	0.306425	0.956713
454	C	0.652394	0.295425	0.956245
455	C	0.6894	0.31951	0.290061
456	C	0.700407	0.35614	0.956271
457	H	0.643632	0.268981	0.958839
458	H	0.726845	0.373814	0.959025
459	H	0.622005	0.352189	0.958976
460	C	0.687653	0.405585	0.963484
461	C	0.714608	0.308176	0.296658
462	C	0.590225	0.281207	0.963281
463	O	0.748687	0.333412	0.971972
464	O	0.662421	0.414422	0.972185
465	O	0.581383	0.247127	0.971909
466	C	0.819883	0.127872	0.046429
467	C	0.856199	0.154373	0.046676
468	C	0.867996	0.191178	0.046459
469	C	0.841486	0.200983	0.046627
470	C	0.80468	0.175979	0.379766
471	C	0.794874	0.139664	0.046637
472	H	0.849479	0.227263	0.04402
473	H	0.768588	0.121378	0.04403
474	H	0.874486	0.146381	0.044067
475	C	0.80965	0.091445	0.041281
476	C	0.778491	0.186208	0.374537
477	C	0.904415	0.217373	0.041259
478	O	0.744746	0.160447	0.032027
479	O	0.835411	0.083458	0.03213
480	O	0.912394	0.251113	0.032072
481	C	0.765106	0.233674	0.026728
482	N	0.737148	0.2134	0.332819
483	C	0.717454	0.224938	0.311399
484	C	0.726446	0.260718	0.315908
485	N	0.754025	0.280846	0.01021
486	C	0.773799	0.269586	0.032305
487	H	0.696833	0.207717	0.291755
488	C	0.800368	0.293467	0.060311
489	O	0.81903	0.323801	0.046859
490	O	0.796961	0.290826	0.101127
491	H	0.782072	0.27118	0.115581
492	N	0.70698	0.273659	0.296328
493	H	0.685479	0.256386	0.281206
494	N	0.785005	0.220288	0.044171
495	H	0.806552	0.237091	0.05941
496	C	0.762195	0.030571	0.026911
497	N	0.782451	0.022893	0.332962
498	C	0.770905	0.491657	0.311549
499	C	0.735123	0.464874	0.316065
500	N	0.71501	0.472324	0.010394
501	C	0.72629	0.003345	0.032522
502	H	0.788109	0.488271	0.291852
503	C	0.702378	0.006005	0.060478
504	O	0.671883	0.494126	0.047577
505	O	0.705344	0.005679	0.101331
506	H	0.725092	0.010606	0.115661
507	N	0.722168	0.432474	0.296462
508	H	0.739432	0.428252	0.2813
509	N	0.775574	0.063879	0.044274
510	H	0.758767	0.068636	0.059484
511	C	0.965276	0.230772	0.026817
512	N	0.972948	0.258716	0.332889
513	C	0.504172	0.278401	0.311447
514	C	0.530942	0.269379	0.315901
515	N	0.52351	0.241823	0.010236
516	C	0.992501	0.22209	0.032398
517	H	0.507553	0.299	0.29177
518	C	0.989856	0.195523	0.060349
519	O	0.501717	0.176895	0.047425
520	O	0.990221	0.198829	0.101202
521	H	0.985311	0.213658	0.115544
522	N	0.563339	0.28884	0.296301
523	H	0.567568	0.310342	0.28118
524	N	0.931985	0.210864	0.044236
525	H	0.927236	0.189309	0.059457
526	C	0.676312	0.369048	0.290168
527	C	0.639687	0.343429	0.289652
528	C	0.626769	0.306425	0.290047
529	C	0.652394	0.295425	0.289576
530	C	0.6894	0.31951	0.623396
531	C	0.700407	0.35614	0.289603
532	H	0.643632	0.268981	0.292172
533	H	0.726845	0.373814	0.292358
534	H	0.622005	0.352189	0.292308
535	C	0.687653	0.405585	0.296816
536	C	0.714608	0.308176	0.62999
537	C	0.590225	0.281207	0.296615
538	O	0.748687	0.333412	0.305306
539	O	0.662421	0.414422	0.305518
540	O	0.581383	0.247127	0.305241
541	C	0.819883	0.127872	0.379763
542	C	0.856199	0.154373	0.380009
543	C	0.867996	0.191178	0.379793
544	C	0.841486	0.200983	0.379962
545	C	0.80468	0.175979	0.7131
546	C	0.794874	0.139664	0.379969
547	H	0.849479	0.227263	0.377354
548	H	0.768588	0.121378	0.377364
549	H	0.874486	0.146381	0.377401
550	C	0.80965	0.091445	0.374613
551	C	0.778491	0.186208	0.707871
552	C	0.904415	0.217373	0.374593
553	O	0.744746	0.160447	0.365361
554	O	0.835411	0.083458	0.365464
555	O	0.912394	0.251113	0.365404
556	C	0.765106	0.233674	0.360062
557	N	0.737148	0.2134	0.666153
558	C	0.717454	0.224938	0.644731
559	C	0.726446	0.260718	0.649243
560	N	0.754025	0.280846	0.343543
561	C	0.773799	0.269586	0.36564
562	H	0.696833	0.207717	0.62509
563	C	0.800368	0.293467	0.393643
564	O	0.81903	0.323801	0.380192
565	O	0.796961	0.290826	0.434461
566	H	0.782072	0.27118	0.448916
567	N	0.70698	0.273659	0.629661
568	H	0.685479	0.256386	0.614538
569	N	0.785005	0.220288	0.377504
570	H	0.806552	0.237091	0.392743
571	C	0.762195	0.030571	0.360245
572	N	0.782451	0.022893	0.666296
573	C	0.770905	0.491657	0.644884
574	C	0.735123	0.464874	0.649399
575	N	0.71501	0.472324	0.34373
576	C	0.72629	0.003345	0.365856
577	H	0.788109	0.488271	0.625186
578	C	0.702378	0.006005	0.393813
579	O	0.671883	0.494126	0.380912
580	O	0.705344	0.005679	0.434664
581	H	0.725092	0.010606	0.448996
582	N	0.722168	0.432474	0.629794
583	H	0.739432	0.428252	0.614635
584	N	0.775574	0.063879	0.377607
585	H	0.758767	0.068636	0.392819
586	C	0.965276	0.230772	0.360152
587	N	0.972948	0.258716	0.66622
588	C	0.504172	0.278401	0.644781
589	C	0.530942	0.269379	0.649236
590	N	0.52351	0.241823	0.34357
591	C	0.992501	0.22209	0.36573
592	H	0.507553	0.299	0.625103
593	C	0.989856	0.195523	0.393683
594	O	0.501717	0.176895	0.38076
595	O	0.990221	0.198829	0.434537
596	H	0.985311	0.213658	0.448876
597	N	0.563339	0.28884	0.629635
598	H	0.567568	0.310342	0.614515
599	N	0.931985	0.210864	0.37757
600	H	0.927236	0.189309	0.39279
601	C	0.676312	0.369048	0.623502
602	C	0.639687	0.343429	0.622987
603	C	0.626769	0.306425	0.623379
604	C	0.652394	0.295425	0.62291
605	C	0.6894	0.31951	0.95673
606	C	0.700407	0.35614	0.622937
607	H	0.643632	0.268981	0.625505
608	H	0.726845	0.373814	0.625691
609	H	0.622005	0.352189	0.625641
610	C	0.687653	0.405585	0.63015
611	C	0.714608	0.308176	0.963324
612	C	0.590225	0.281207	0.629947
613	O	0.748687	0.333412	0.638641
614	O	0.662421	0.414422	0.638851
615	O	0.581383	0.247127	0.638575
616	C	0.819883	0.127872	0.713097
617	C	0.856199	0.154373	0.713343
618	C	0.867996	0.191178	0.713127
619	C	0.841486	0.200983	0.713293
620	C	0.80468	0.175979	0.046433
621	C	0.794874	0.139664	0.713303
622	H	0.849479	0.227263	0.710688
623	H	0.768588	0.121378	0.710698
624	H	0.874486	0.146381	0.710735
625	C	0.80965	0.091445	0.707948
626	C	0.778491	0.186208	0.041205
627	C	0.904415	0.217373	0.707928
628	O	0.744746	0.160447	0.698695
629	O	0.835411	0.083458	0.698798
630	O	0.912394	0.251113	0.698738
631	C	0.765106	0.233674	0.693396
632	N	0.737148	0.2134	0.999486
633	C	0.717454	0.224938	0.978065
634	C	0.726446	0.260718	0.982577
635	N	0.754025	0.280846	0.676878
636	C	0.773799	0.269586	0.698974
637	H	0.696833	0.207717	0.958424
638	C	0.800368	0.293467	0.726978
639	O	0.81903	0.323801	0.713526
640	O	0.796961	0.290826	0.767795
641	H	0.782072	0.27118	0.782247
642	N	0.70698	0.273659	0.962995
643	H	0.685479	0.256386	0.947872
644	N	0.785005	0.220288	0.710838
645	H	0.806552	0.237091	0.726077
646	C	0.762195	0.030571	0.693579
647	N	0.782451	0.022893	0.999628
648	C	0.770905	0.491657	0.978218
649	C	0.735123	0.464874	0.982733
650	N	0.71501	0.472324	0.67706
651	C	0.72629	0.003345	0.69919
652	H	0.788109	0.488271	0.95852
653	C	0.702378	0.006005	0.727147
654	O	0.671883	0.494126	0.714243
655	O	0.705344	0.005679	0.767998
656	H	0.725092	0.010606	0.782327
657	N	0.722168	0.432474	0.963128
658	H	0.739432	0.428252	0.947965
659	N	0.775574	0.063879	0.710941
660	H	0.758767	0.068636	0.72615
661	C	0.965276	0.230772	0.693486
662	N	0.972948	0.258716	0.999554
663	C	0.504172	0.278401	0.978115
664	C	0.530942	0.269379	0.98257
665	N	0.52351	0.241823	0.676904
666	C	0.992501	0.22209	0.699064
667	H	0.507553	0.299	0.958437
668	C	0.989856	0.195523	0.727017
669	O	0.501717	0.176895	0.714094
670	O	0.990221	0.198829	0.767868
671	H	0.985311	0.213658	0.78221
672	N	0.563339	0.28884	0.962969
673	H	0.567568	0.310342	0.947846
674	N	0.931985	0.210864	0.710904
675	H	0.927236	0.189309	0.726124
676	C	0.676312	0.869049	0.956836
677	C	0.639688	0.84343	0.956318
678	C	0.626768	0.806426	0.956713
679	C	0.652394	0.795425	0.956245
680	C	0.6894	0.819511	0.290061
681	C	0.700407	0.856141	0.956271
682	H	0.643633	0.768982	0.958839
683	H	0.726846	0.873814	0.959025
684	H	0.622005	0.85219	0.958976
685	C	0.687651	0.905586	0.963484
686	C	0.714608	0.808176	0.296658
687	C	0.590225	0.781208	0.963281
688	O	0.748686	0.83341	0.971972
689	O	0.662419	0.91442	0.972185
690	O	0.581383	0.747129	0.971909
691	C	0.819883	0.627872	0.046429
692	C	0.856197	0.654374	0.046676
693	C	0.867994	0.691179	0.046459
694	C	0.841484	0.700983	0.046627
695	C	0.804678	0.67598	0.379766
696	C	0.794872	0.639665	0.046637
697	H	0.849478	0.727265	0.04402
698	H	0.768589	0.621379	0.04403
699	H	0.874486	0.64638	0.044067
700	C	0.809651	0.591446	0.041281
701	C	0.778488	0.686209	0.374537
702	C	0.904415	0.717373	0.041259
703	O	0.744746	0.660447	0.032027
704	O	0.835411	0.583458	0.03213
705	O	0.912395	0.751115	0.032072
706	C	0.765104	0.733675	0.026728
707	N	0.737146	0.7134	0.332819
708	C	0.717454	0.724939	0.311399
709	C	0.726446	0.760718	0.315908
710	N	0.754023	0.780847	0.01021
711	C	0.773799	0.769586	0.032305
712	H	0.696833	0.707717	0.291755
713	C	0.800368	0.793468	0.060311
714	O	0.819031	0.823802	0.046859
715	O	0.796962	0.790827	0.101127
716	H	0.782072	0.77118	0.115581
717	N	0.70698	0.77366	0.296328
718	H	0.68548	0.756387	0.281206
719	N	0.785005	0.72029	0.044171
720	H	0.806552	0.737091	0.05941
721	C	0.762195	0.530571	0.026911
722	N	0.782451	0.522893	0.332962
723	C	0.770905	0.991658	0.311549
724	C	0.735123	0.964875	0.316065
725	N	0.71501	0.972325	0.010394
726	C	0.72629	0.503345	0.032522
727	H	0.78811	0.988271	0.291852
728	C	0.702378	0.506005	0.060478
729	O	0.671882	0.994127	0.047577
730	O	0.705343	0.505679	0.101331
731	H	0.725092	0.510606	0.115661
732	N	0.722168	0.932475	0.296462
733	H	0.739433	0.928253	0.2813
734	N	0.775574	0.56388	0.044274
735	H	0.758767	0.568636	0.059484
736	C	0.965277	0.730774	0.026817
737	N	0.972945	0.758716	0.332889
738	C	0.504171	0.778402	0.311447
739	C	0.530942	0.76938	0.315901
740	N	0.52351	0.741825	0.010236
741	C	0.992502	0.722091	0.032398
742	H	0.507554	0.799	0.29177
743	C	0.989856	0.695523	0.060349
744	O	0.501717	0.676895	0.047425
745	O	0.990221	0.69883	0.101202
746	H	0.985312	0.71366	0.115544
747	N	0.56334	0.78884	0.296301
748	H	0.567568	0.810343	0.28118
749	N	0.931985	0.710865	0.044236
750	H	0.927236	0.689309	0.059457
751	C	0.676312	0.869049	0.290168
752	C	0.639688	0.84343	0.289652
753	C	0.626768	0.806426	0.290047
754	C	0.652394	0.795425	0.289576
755	C	0.6894	0.819511	0.623396
756	C	0.700407	0.856141	0.289603
757	H	0.643633	0.768982	0.292172
758	H	0.726846	0.873814	0.292358
759	H	0.622005	0.85219	0.292308
760	C	0.687651	0.905586	0.296816
761	C	0.714608	0.808176	0.62999
762	C	0.590225	0.781208	0.296615
763	O	0.748686	0.83341	0.305306
764	O	0.662419	0.91442	0.305518
765	O	0.581383	0.747129	0.305241
766	C	0.819883	0.627872	0.379763
767	C	0.856197	0.654374	0.380009
768	C	0.867994	0.691179	0.379793
769	C	0.841484	0.700983	0.379962
770	C	0.804678	0.67598	0.7131
771	C	0.794872	0.639665	0.379969
772	H	0.849478	0.727265	0.377354
773	H	0.768589	0.621379	0.377364
774	H	0.874486	0.64638	0.377401
775	C	0.809651	0.591446	0.374613
776	C	0.778488	0.686209	0.707871
777	C	0.904415	0.717373	0.374593
778	O	0.744746	0.660447	0.365361
779	O	0.835411	0.583458	0.365464
780	O	0.912395	0.751115	0.365404
781	C	0.765104	0.733675	0.360062
782	N	0.737146	0.7134	0.666153
783	C	0.717454	0.724939	0.644731
784	C	0.726446	0.760718	0.649243
785	N	0.754023	0.780847	0.343543
786	C	0.773799	0.769586	0.36564
787	H	0.696833	0.707717	0.62509
788	C	0.800368	0.793468	0.393643
789	O	0.819031	0.823802	0.380192
790	O	0.796962	0.790827	0.434461
791	H	0.782072	0.77118	0.448916
792	N	0.70698	0.77366	0.629661
793	H	0.68548	0.756387	0.614538
794	N	0.785005	0.72029	0.377504
795	H	0.806552	0.737091	0.392743
796	C	0.762195	0.530571	0.360245
797	N	0.782451	0.522893	0.666296
798	C	0.770905	0.991658	0.644884
799	C	0.735123	0.964875	0.649399
800	N	0.71501	0.972325	0.34373
801	C	0.72629	0.503345	0.365856
802	H	0.78811	0.988271	0.625186
803	C	0.702378	0.506005	0.393813
804	O	0.671882	0.994127	0.380912
805	O	0.705343	0.505679	0.434664
806	H	0.725092	0.510606	0.448996
807	N	0.722168	0.932475	0.629794
808	H	0.739433	0.928253	0.614635
809	N	0.775574	0.56388	0.377607
810	H	0.758767	0.568636	0.392819
811	C	0.965277	0.730774	0.360152
812	N	0.972945	0.758716	0.66622
813	C	0.504171	0.778402	0.644781
814	C	0.530942	0.76938	0.649236
815	N	0.52351	0.741825	0.34357
816	C	0.992502	0.722091	0.36573
817	H	0.507554	0.799	0.625103
818	C	0.989856	0.695523	0.393683
819	O	0.501717	0.676895	0.38076
820	O	0.990221	0.69883	0.434537
821	H	0.985312	0.71366	0.448876
822	N	0.56334	0.78884	0.629635
823	H	0.567568	0.810343	0.614515
824	N	0.931985	0.710865	0.37757
825	H	0.927236	0.689309	0.39279
826	C	0.676312	0.869049	0.623502
827	C	0.639688	0.84343	0.622987
828	C	0.626768	0.806426	0.623379
829	C	0.652394	0.795425	0.62291
830	C	0.6894	0.819511	0.95673
831	C	0.700407	0.856141	0.622937
832	H	0.643633	0.768982	0.625505
833	H	0.726846	0.873814	0.625691
834	H	0.622005	0.85219	0.625641
835	C	0.687651	0.905586	0.63015
836	C	0.714608	0.808176	0.963324
837	C	0.590225	0.781208	0.629947
838	O	0.748686	0.83341	0.638641
839	O	0.662419	0.91442	0.638851
840	O	0.581383	0.747129	0.638575
841	C	0.819883	0.627872	0.713097
842	C	0.856197	0.654374	0.713343
843	C	0.867994	0.691179	0.713127
844	C	0.841484	0.700983	0.713293
845	C	0.804678	0.67598	0.046433
846	C	0.794872	0.639665	0.713303
847	H	0.849478	0.727265	0.710688
848	H	0.768589	0.621379	0.710698
849	H	0.874486	0.64638	0.710735
850	C	0.809651	0.591446	0.707948
851	C	0.778488	0.686209	0.041205
852	C	0.904415	0.717373	0.707928
853	O	0.744746	0.660447	0.698695
854	O	0.835411	0.583458	0.698798
855	O	0.912395	0.751115	0.698738
856	C	0.765104	0.733675	0.693396
857	N	0.737146	0.7134	0.999486
858	C	0.717454	0.724939	0.978065
859	C	0.726446	0.760718	0.982577
860	N	0.754023	0.780847	0.676878
861	C	0.773799	0.769586	0.698974
862	H	0.696833	0.707717	0.958424
863	C	0.800368	0.793468	0.726978
864	O	0.819031	0.823802	0.713526
865	O	0.796962	0.790827	0.767795
866	H	0.782072	0.77118	0.782247
867	N	0.70698	0.77366	0.962995
868	H	0.68548	0.756387	0.947872
869	N	0.785005	0.72029	0.710838
870	H	0.806552	0.737091	0.726077
871	C	0.762195	0.530571	0.693579
872	N	0.782451	0.522893	0.999628
873	C	0.770905	0.991658	0.978218
874	C	0.735123	0.964875	0.982733
875	N	0.71501	0.972325	0.67706
876	C	0.72629	0.503345	0.69919
877	H	0.78811	0.988271	0.95852
878	C	0.702378	0.506005	0.727147
879	O	0.671882	0.994127	0.714243
880	O	0.705343	0.505679	0.767998
881	H	0.725092	0.510606	0.782327
882	N	0.722168	0.932475	0.963128
883	H	0.739433	0.928253	0.947965
884	N	0.775574	0.56388	0.710941
885	H	0.758767	0.568636	0.72615
886	C	0.965277	0.730774	0.693486
887	N	0.972945	0.758716	0.999554
888	C	0.504171	0.778402	0.978115
889	C	0.530942	0.76938	0.98257
890	N	0.52351	0.741825	0.676904
891	C	0.992502	0.722091	0.699064
892	H	0.507554	0.799	0.958437
893	C	0.989856	0.695523	0.727017
894	O	0.501717	0.676895	0.714094
895	O	0.990221	0.69883	0.767868
896	H	0.985312	0.71366	0.78221
897	N	0.56334	0.78884	0.962969
898	H	0.567568	0.810343	0.947846
899	N	0.931985	0.710865	0.710904
900	H	0.927236	0.689309	0.726124
