data_C360H180N180O144_2018-02-15_10:32:46
#******************************************
#
# CIF file created by Zeo++
# Zeo++ is an open source package to
# analyze microporous materials
#
#*******************************************

_cell_length_a		43.5929   
_cell_length_b		43.5929   
_cell_length_c		30.103   
_cell_angle_alpha		90   
_cell_angle_beta		90   
_cell_angle_gamma		120   

_symmetry_space_group_name_H-M		'P1'
_symmetry_Int_Tables_number		1
_symmetry_cell_setting		Monoclinic

loop_
_symmetry_equiv_pos_as_xyz
'+x,+y,+z'

loop_
_atom_site_label
_atom_site_type_symbol
_atom_site_fract_x
_atom_site_fract_y
_atom_site_fract_z
1	C	0.176294	0.368995	0.957696
2	C	0.139713	0.343415	0.957178
3	C	0.126708	0.30644	0.957573
4	C	0.152295	0.295445	0.957121
5	C	0.189272	0.319414	0.290939
6	C	0.200277	0.356002	0.957151
7	H	0.143495	0.269036	0.959646
8	H	0.226675	0.373601	0.959835
9	H	0.122103	0.352212	0.959752
10	C	0.187646	0.40553	0.96413
11	C	0.214462	0.308066	0.297346
12	C	0.090167	0.281239	0.963931
13	O	0.248564	0.333289	0.972209
14	O	0.162423	0.414404	0.972352
15	O	0.081285	0.247134	0.9721
16	C	0.319665	0.127819	0.047385
17	C	0.355965	0.154206	0.047672
18	C	0.367926	0.190997	0.047385
19	C	0.341532	0.200903	0.04763
20	C	0.304738	0.176076	0.380736
21	C	0.294831	0.139775	0.047673
22	H	0.349613	0.227162	0.04503
23	H	0.268569	0.121601	0.045099
24	H	0.374142	0.146125	0.04506
25	C	0.309326	0.091418	0.042005
26	C	0.278676	0.186409	0.375298
27	C	0.404316	0.217059	0.041923
28	O	0.244933	0.160696	0.032998
29	O	0.335032	0.083387	0.033005
30	O	0.412339	0.25079	0.032893
31	C	0.265389	0.233694	0.02643
32	N	0.236715	0.213182	0.333771
33	C	0.216926	0.224752	0.312757
34	C	0.226446	0.260691	0.316494
35	N	0.254862	0.281086	0.009422
36	C	0.274759	0.269743	0.031089
37	H	0.195713	0.207362	0.294111
38	N	0.303572	0.293609	0.057572
39	O	0.325794	0.319109	0.034576
40	O	0.293103	0.305799	0.088097
41	N	0.206811	0.273579	0.297346
42	H	0.185048	0.256212	0.282903
43	N	0.285326	0.220527	0.044135
44	H	0.306941	0.237514	0.059055
45	C	0.262036	0.030836	0.026524
46	N	0.282534	0.022676	0.333827
47	C	0.270958	0.491315	0.312819
48	C	0.235018	0.464898	0.316565
49	N	0.214639	0.472914	0.009534
50	C	0.225991	0.004153	0.031208
51	H	0.288336	0.487501	0.294134
52	N	0.202141	0.009096	0.057729
53	O	0.176626	0.505815	0.034767
54	O	0.189976	0.986439	0.088255
55	N	0.222132	0.432373	0.29743
56	H	0.239493	0.427976	0.282969
57	N	0.275209	0.063949	0.044198
58	H	0.258228	0.068582	0.059125
59	C	0.464884	0.230333	0.026369
60	N	0.473035	0.258995	0.333688
61	C	0.004393	0.278784	0.312672
62	C	0.030811	0.269261	0.3164
63	N	0.022806	0.240868	0.009369
64	C	0.491574	0.220983	0.031058
65	H	0.008199	0.299969	0.293979
66	N	0.486645	0.192199	0.057588
67	O	0.98993	0.169963	0.034634
68	O	0.509312	0.202705	0.088107
69	N	0.063331	0.288892	0.29725
70	H	0.067734	0.31066	0.282809
71	N	0.431791	0.210415	0.044104
72	H	0.427167	0.188812	0.059054
73	C	0.176294	0.368995	0.291028
74	C	0.139713	0.343415	0.290512
75	C	0.126708	0.30644	0.290905
76	C	0.152295	0.295445	0.290454
77	C	0.189272	0.319414	0.62427
78	C	0.200277	0.356002	0.290483
79	H	0.143495	0.269036	0.29298
80	H	0.226675	0.373601	0.293169
81	H	0.122103	0.352212	0.293087
82	C	0.187646	0.40553	0.297465
83	C	0.214462	0.308066	0.630678
84	C	0.090167	0.281239	0.297265
85	O	0.248564	0.333289	0.305544
86	O	0.162423	0.414404	0.305685
87	O	0.081285	0.247134	0.305434
88	C	0.319665	0.127819	0.38072
89	C	0.355965	0.154206	0.381005
90	C	0.367926	0.190997	0.38072
91	C	0.341532	0.200903	0.380962
92	C	0.304738	0.176076	0.714072
93	C	0.294831	0.139775	0.381005
94	H	0.349613	0.227162	0.378364
95	H	0.268569	0.121601	0.378431
96	H	0.374142	0.146125	0.378394
97	C	0.309326	0.091418	0.375338
98	C	0.278676	0.186409	0.708634
99	C	0.404316	0.217059	0.375255
100	O	0.244933	0.160696	0.366332
101	O	0.335032	0.083387	0.366339
102	O	0.412339	0.25079	0.366226
103	C	0.265389	0.233694	0.359762
104	N	0.236715	0.213182	0.667103
105	C	0.216926	0.224752	0.646089
106	C	0.226446	0.260691	0.649826
107	N	0.254862	0.281086	0.342753
108	C	0.274759	0.269743	0.364422
109	H	0.195713	0.207362	0.627443
110	N	0.303572	0.293609	0.390905
111	O	0.325794	0.319109	0.36791
112	O	0.293103	0.305799	0.42143
113	N	0.206811	0.273579	0.630678
114	H	0.185048	0.256212	0.616235
115	N	0.285326	0.220527	0.377468
116	H	0.306941	0.237514	0.39239
117	C	0.262036	0.030836	0.359858
118	N	0.282534	0.022676	0.667163
119	C	0.270958	0.491315	0.646152
120	C	0.235018	0.464898	0.649899
121	N	0.214639	0.472914	0.342866
122	C	0.225991	0.004153	0.364542
123	H	0.288336	0.487501	0.627466
124	N	0.202141	0.009096	0.391061
125	O	0.176626	0.505815	0.3681
126	O	0.189976	0.986439	0.421589
127	N	0.222132	0.432373	0.630765
128	H	0.239493	0.427976	0.616301
129	N	0.275209	0.063949	0.377531
130	H	0.258228	0.068582	0.392459
131	C	0.464884	0.230333	0.359702
132	N	0.473035	0.258995	0.66702
133	C	0.004393	0.278784	0.646006
134	C	0.030811	0.269261	0.649733
135	N	0.022806	0.240868	0.342704
136	C	0.491574	0.220983	0.364392
137	H	0.008199	0.299969	0.627313
138	N	0.486645	0.192199	0.390921
139	O	0.98993	0.169963	0.367967
140	O	0.509312	0.202705	0.42144
141	N	0.063331	0.288892	0.630582
142	H	0.067734	0.31066	0.616142
143	N	0.431791	0.210415	0.377438
144	H	0.427167	0.188812	0.392386
145	C	0.176294	0.368995	0.62436
146	C	0.139713	0.343415	0.623845
147	C	0.126708	0.30644	0.624237
148	C	0.152295	0.295445	0.623785
149	C	0.189272	0.319414	0.957606
150	C	0.200277	0.356002	0.623815
151	H	0.143495	0.269036	0.626313
152	H	0.226675	0.373601	0.626503
153	H	0.122103	0.352212	0.62642
154	C	0.187646	0.40553	0.630798
155	C	0.214462	0.308066	0.964011
156	C	0.090167	0.281239	0.630599
157	O	0.248564	0.333289	0.638877
158	O	0.162423	0.414404	0.63902
159	O	0.081285	0.247134	0.638767
160	C	0.319665	0.127819	0.714052
161	C	0.355965	0.154206	0.714338
162	C	0.367926	0.190997	0.714052
163	C	0.341532	0.200903	0.714298
164	C	0.304738	0.176076	0.047404
165	C	0.294831	0.139775	0.714341
166	H	0.349613	0.227162	0.711697
167	H	0.268569	0.121601	0.711763
168	H	0.374142	0.146125	0.711727
169	C	0.309326	0.091418	0.708671
170	C	0.278676	0.186409	0.041967
171	C	0.404316	0.217059	0.708591
172	O	0.244933	0.160696	0.699665
173	O	0.335032	0.083387	0.699671
174	O	0.412339	0.25079	0.699559
175	C	0.265389	0.233694	0.693097
176	N	0.236715	0.213182	0.000437
177	C	0.216926	0.224752	0.979424
178	C	0.226446	0.260691	0.983162
179	N	0.254862	0.281086	0.676089
180	C	0.274759	0.269743	0.697755
181	H	0.195713	0.207362	0.960778
182	N	0.303572	0.293609	0.724237
183	O	0.325794	0.319109	0.701243
184	O	0.293103	0.305799	0.754762
185	N	0.206811	0.273579	0.964014
186	H	0.185048	0.256212	0.94957
187	N	0.285326	0.220527	0.7108
188	H	0.306941	0.237514	0.725722
189	C	0.262036	0.030836	0.69319
190	N	0.282534	0.022676	0.000495
191	C	0.270958	0.491315	0.979484
192	C	0.235018	0.464898	0.983231
193	N	0.214639	0.472914	0.676199
194	C	0.225991	0.004153	0.697874
195	H	0.288336	0.487501	0.960802
196	N	0.202141	0.009096	0.724397
197	O	0.176626	0.505815	0.701432
198	O	0.189976	0.986439	0.754922
199	N	0.222132	0.432373	0.964097
200	H	0.239493	0.427976	0.949633
201	N	0.275209	0.063949	0.710863
202	H	0.258228	0.068582	0.725792
203	C	0.464884	0.230333	0.693034
204	N	0.473035	0.258995	0.000354
205	C	0.004393	0.278784	0.979338
206	C	0.030811	0.269261	0.983065
207	N	0.022806	0.240868	0.676036
208	C	0.491574	0.220983	0.697725
209	H	0.008199	0.299969	0.960646
210	N	0.486645	0.192199	0.724254
211	O	0.98993	0.169963	0.701299
212	O	0.509312	0.202705	0.754772
213	N	0.063331	0.288892	0.963918
214	H	0.067734	0.31066	0.949477
215	N	0.431791	0.210415	0.71077
216	H	0.427167	0.188812	0.725719
217	C	0.176294	0.868995	0.957696
218	C	0.139713	0.843415	0.957178
219	C	0.126708	0.806441	0.957573
220	C	0.152295	0.795443	0.957121
221	C	0.189272	0.819414	0.290939
222	C	0.200277	0.856003	0.957151
223	H	0.143496	0.769036	0.959646
224	H	0.226676	0.873601	0.959835
225	H	0.122103	0.852212	0.959752
226	C	0.187647	0.90553	0.96413
227	C	0.214463	0.808067	0.297346
228	C	0.090168	0.78124	0.963931
229	O	0.248565	0.833289	0.972209
230	O	0.162423	0.914404	0.972352
231	O	0.081284	0.747133	0.9721
232	C	0.319664	0.62782	0.047385
233	C	0.355964	0.654205	0.047672
234	C	0.367926	0.690997	0.047385
235	C	0.341532	0.700903	0.04763
236	C	0.304738	0.676076	0.380736
237	C	0.294832	0.639776	0.047673
238	H	0.349613	0.727161	0.04503
239	H	0.268569	0.6216	0.045099
240	H	0.374142	0.646126	0.04506
241	C	0.309327	0.591419	0.042005
242	C	0.278677	0.686409	0.375302
243	C	0.404318	0.717059	0.041923
244	O	0.244934	0.660697	0.032998
245	O	0.335033	0.583385	0.033005
246	O	0.41234	0.750791	0.032893
247	C	0.26539	0.733693	0.02643
248	N	0.236716	0.713183	0.333771
249	C	0.216926	0.724751	0.312757
250	C	0.226446	0.76069	0.316494
251	N	0.254863	0.781086	0.009422
252	C	0.27476	0.769744	0.031089
253	H	0.195713	0.707361	0.294111
254	N	0.303573	0.79361	0.057572
255	O	0.325795	0.81911	0.034576
256	O	0.293104	0.805799	0.088097
257	N	0.206812	0.773579	0.297346
258	H	0.185048	0.756211	0.282903
259	N	0.285327	0.720528	0.044135
260	H	0.306941	0.737513	0.059055
261	C	0.262037	0.530835	0.026524
262	N	0.282535	0.522677	0.333827
263	C	0.270959	0.991315	0.312819
264	C	0.235018	0.964899	0.316565
265	N	0.214639	0.972914	0.009534
266	C	0.225992	0.504154	0.031208
267	H	0.288337	0.987501	0.294134
268	N	0.202141	0.509096	0.057729
269	O	0.176625	0.005814	0.034767
270	O	0.189976	0.486438	0.088255
271	N	0.222132	0.932374	0.29743
272	H	0.239494	0.927977	0.282969
273	N	0.275209	0.563948	0.044198
274	H	0.258228	0.568581	0.059125
275	C	0.464885	0.730334	0.026369
276	N	0.473036	0.758995	0.333688
277	C	0.004394	0.778784	0.312672
278	C	0.030809	0.769259	0.3164
279	N	0.022808	0.740869	0.009369
280	C	0.491575	0.720981	0.031058
281	H	0.008199	0.799969	0.293979
282	N	0.486646	0.692199	0.057588
283	O	0.98993	0.669962	0.034634
284	O	0.509311	0.702705	0.088107
285	N	0.063331	0.788892	0.29725
286	H	0.067735	0.81066	0.282809
287	N	0.431791	0.710415	0.044104
288	H	0.427168	0.688811	0.059054
289	C	0.176294	0.868995	0.291028
290	C	0.139713	0.843415	0.290512
291	C	0.126708	0.806441	0.290905
292	C	0.152295	0.795443	0.290454
293	C	0.189272	0.819414	0.62427
294	C	0.200277	0.856003	0.290483
295	H	0.143496	0.769036	0.29298
296	H	0.226676	0.873601	0.293169
297	H	0.122103	0.852212	0.293087
298	C	0.187647	0.90553	0.297464
299	C	0.214463	0.808067	0.630678
300	C	0.090168	0.78124	0.297265
301	O	0.248565	0.833289	0.305544
302	O	0.162423	0.914404	0.305685
303	O	0.081284	0.747133	0.305434
304	C	0.319664	0.62782	0.38072
305	C	0.355964	0.654205	0.381005
306	C	0.367926	0.690997	0.38072
307	C	0.341532	0.700903	0.380962
308	C	0.304738	0.676076	0.714072
309	C	0.294832	0.639776	0.381005
310	H	0.349613	0.727161	0.378364
311	H	0.268569	0.6216	0.378431
312	H	0.374142	0.646126	0.378394
313	C	0.309327	0.591419	0.375338
314	C	0.278677	0.686409	0.708634
315	C	0.404318	0.717059	0.375255
316	O	0.244934	0.660697	0.366332
317	O	0.335033	0.583385	0.366339
318	O	0.41234	0.750791	0.366226
319	C	0.26539	0.733693	0.359762
320	N	0.236716	0.713183	0.667103
321	C	0.216926	0.724751	0.646089
322	C	0.226446	0.76069	0.649826
323	N	0.254863	0.781086	0.342753
324	C	0.27476	0.769744	0.364422
325	H	0.195713	0.707361	0.627443
326	N	0.303573	0.79361	0.390905
327	O	0.325795	0.81911	0.36791
328	O	0.293104	0.805799	0.42143
329	N	0.206812	0.773579	0.630678
330	H	0.185048	0.756211	0.616235
331	N	0.285327	0.720528	0.377468
332	H	0.306941	0.737513	0.39239
333	C	0.262037	0.530835	0.359858
334	N	0.282535	0.522677	0.667163
335	C	0.270959	0.991315	0.646152
336	C	0.235018	0.964899	0.649899
337	N	0.214639	0.972914	0.342866
338	C	0.225992	0.504154	0.364542
339	H	0.288337	0.987501	0.627466
340	N	0.202141	0.509096	0.391061
341	O	0.176625	0.005814	0.3681
342	O	0.189976	0.486438	0.421589
343	N	0.222132	0.932374	0.630765
344	H	0.239494	0.927977	0.616301
345	N	0.275209	0.563948	0.377531
346	H	0.258228	0.568581	0.392459
347	C	0.464885	0.730334	0.359702
348	N	0.473036	0.758995	0.66702
349	C	0.004394	0.778784	0.646006
350	C	0.030809	0.769259	0.649733
351	N	0.022808	0.740869	0.342704
352	C	0.491575	0.720981	0.364392
353	H	0.008199	0.799969	0.627313
354	N	0.486646	0.692199	0.390921
355	O	0.98993	0.669962	0.367967
356	O	0.509311	0.702705	0.42144
357	N	0.063331	0.788892	0.630582
358	H	0.067735	0.81066	0.616142
359	N	0.431791	0.710415	0.377438
360	H	0.427168	0.688811	0.392386
361	C	0.176294	0.868995	0.62436
362	C	0.139713	0.843415	0.623845
363	C	0.126708	0.806441	0.624237
364	C	0.152295	0.795443	0.623785
365	C	0.189272	0.819414	0.957606
366	C	0.200277	0.856003	0.623815
367	H	0.143496	0.769036	0.626313
368	H	0.226676	0.873601	0.626503
369	H	0.122103	0.852212	0.62642
370	C	0.187647	0.90553	0.630798
371	C	0.214463	0.808067	0.964011
372	C	0.090168	0.78124	0.630599
373	O	0.248565	0.833289	0.638877
374	O	0.162423	0.914404	0.63902
375	O	0.081284	0.747133	0.638767
376	C	0.319664	0.62782	0.714052
377	C	0.355964	0.654205	0.714338
378	C	0.367926	0.690997	0.714052
379	C	0.341532	0.700903	0.714298
380	C	0.304738	0.676076	0.047404
381	C	0.294832	0.639776	0.714341
382	H	0.349613	0.727161	0.711697
383	H	0.268569	0.6216	0.711763
384	H	0.374142	0.646126	0.711727
385	C	0.309327	0.591419	0.708671
386	C	0.278677	0.686409	0.041967
387	C	0.404318	0.717059	0.708591
388	O	0.244934	0.660697	0.699665
389	O	0.335033	0.583385	0.699671
390	O	0.41234	0.750791	0.699559
391	C	0.26539	0.733693	0.693097
392	N	0.236716	0.713183	0.000437
393	C	0.216926	0.724751	0.979424
394	C	0.226446	0.76069	0.983162
395	N	0.254863	0.781086	0.676089
396	C	0.27476	0.769744	0.697755
397	H	0.195713	0.707361	0.960778
398	N	0.303573	0.79361	0.724237
399	O	0.325795	0.81911	0.701243
400	O	0.293104	0.805799	0.754762
401	N	0.206812	0.773579	0.964014
402	H	0.185048	0.756211	0.94957
403	N	0.285327	0.720528	0.7108
404	H	0.306941	0.737513	0.725722
405	C	0.262037	0.530835	0.69319
406	N	0.282535	0.522677	0.000495
407	C	0.270959	0.991315	0.979484
408	C	0.235018	0.964899	0.983231
409	N	0.214639	0.972914	0.676199
410	C	0.225992	0.504154	0.697874
411	H	0.288337	0.987501	0.960802
412	N	0.202141	0.509096	0.724397
413	O	0.176625	0.005814	0.701432
414	O	0.189976	0.486438	0.754922
415	N	0.222132	0.932374	0.964097
416	H	0.239494	0.927977	0.949633
417	N	0.275209	0.563948	0.710863
418	H	0.258228	0.568581	0.725792
419	C	0.464885	0.730334	0.693034
420	N	0.473036	0.758995	0.000354
421	C	0.004394	0.778784	0.979338
422	C	0.030809	0.769259	0.983065
423	N	0.022808	0.740869	0.676036
424	C	0.491575	0.720981	0.697725
425	H	0.008199	0.799969	0.960646
426	N	0.486646	0.692199	0.724254
427	O	0.98993	0.669962	0.701299
428	O	0.509311	0.702705	0.754772
429	N	0.063331	0.788892	0.963918
430	H	0.067735	0.81066	0.949477
431	N	0.431791	0.710415	0.71077
432	H	0.427168	0.688811	0.725719
433	C	0.676293	0.368995	0.957696
434	C	0.639713	0.343415	0.957178
435	C	0.626708	0.30644	0.957573
436	C	0.652296	0.295445	0.957121
437	C	0.689271	0.319414	0.290939
438	C	0.700277	0.356002	0.957151
439	H	0.643496	0.269036	0.959646
440	H	0.726676	0.373601	0.959835
441	H	0.622103	0.352212	0.959752
442	C	0.687645	0.40553	0.96413
443	C	0.714462	0.308066	0.297346
444	C	0.590168	0.281239	0.963931
445	O	0.748565	0.333289	0.972209
446	O	0.662423	0.414404	0.972352
447	O	0.581284	0.247134	0.9721
448	C	0.819664	0.127819	0.047385
449	C	0.855964	0.154206	0.047672
450	C	0.867925	0.190997	0.047385
451	C	0.841531	0.200903	0.04763
452	C	0.804738	0.176076	0.380736
453	C	0.794832	0.139775	0.047673
454	H	0.849611	0.227162	0.04503
455	H	0.76857	0.121601	0.045099
456	H	0.874143	0.146125	0.04506
457	C	0.809327	0.091418	0.042005
458	C	0.778676	0.186409	0.375298
459	C	0.904318	0.217059	0.041923
460	O	0.744934	0.160696	0.032998
461	O	0.835034	0.083387	0.033005
462	O	0.91234	0.25079	0.032893
463	C	0.765391	0.233694	0.02643
464	N	0.736715	0.213182	0.333771
465	C	0.716926	0.224752	0.312757
466	C	0.726445	0.260691	0.316494
467	N	0.754863	0.281086	0.009422
468	C	0.774758	0.269743	0.031089
469	H	0.695713	0.207362	0.294111
470	N	0.803572	0.293609	0.057572
471	O	0.825794	0.319109	0.034576
472	O	0.793103	0.305799	0.088097
473	N	0.706811	0.273579	0.297346
474	H	0.685048	0.256212	0.282903
475	N	0.785326	0.220527	0.044135
476	H	0.80694	0.237514	0.059055
477	C	0.762037	0.030836	0.026524
478	N	0.782535	0.022676	0.333827
479	C	0.770959	0.491315	0.312819
480	C	0.735018	0.464898	0.316565
481	N	0.714638	0.472914	0.009534
482	C	0.725992	0.004153	0.031208
483	H	0.788337	0.487501	0.294134
484	N	0.702141	0.009096	0.057729
485	O	0.676626	0.505815	0.034767
486	O	0.689977	0.986439	0.088255
487	N	0.722132	0.432373	0.29743
488	H	0.739494	0.427976	0.282969
489	N	0.77521	0.063949	0.044198
490	H	0.758228	0.068582	0.059125
491	C	0.964883	0.230333	0.026369
492	N	0.973036	0.258995	0.333688
493	C	0.504394	0.278784	0.312672
494	C	0.53081	0.269261	0.3164
495	N	0.522807	0.240868	0.009369
496	C	0.991575	0.220983	0.031058
497	H	0.508199	0.299969	0.293979
498	N	0.986646	0.192199	0.057588
499	O	0.489931	0.169963	0.034634
500	O	0.00931	0.202705	0.088107
501	N	0.563331	0.288892	0.29725
502	H	0.567735	0.31066	0.282809
503	N	0.93179	0.210415	0.044104
504	H	0.927168	0.188812	0.059054
505	C	0.676293	0.368995	0.291028
506	C	0.639713	0.343415	0.290512
507	C	0.626708	0.30644	0.290905
508	C	0.652296	0.295445	0.290454
509	C	0.689271	0.319414	0.62427
510	C	0.700277	0.356002	0.290483
511	H	0.643496	0.269036	0.29298
512	H	0.726676	0.373601	0.293169
513	H	0.622103	0.352212	0.293087
514	C	0.687645	0.40553	0.297465
515	C	0.714462	0.308066	0.630678
516	C	0.590168	0.281239	0.297265
517	O	0.748565	0.333289	0.305544
518	O	0.662423	0.414404	0.305685
519	O	0.581284	0.247134	0.305434
520	C	0.819664	0.127819	0.38072
521	C	0.855964	0.154206	0.381005
522	C	0.867925	0.190997	0.38072
523	C	0.841531	0.200903	0.380962
524	C	0.804738	0.176076	0.714072
525	C	0.794832	0.139775	0.381005
526	H	0.849611	0.227162	0.378364
527	H	0.76857	0.121601	0.378431
528	H	0.874143	0.146125	0.378394
529	C	0.809327	0.091418	0.375338
530	C	0.778676	0.186409	0.708634
531	C	0.904318	0.217059	0.375255
532	O	0.744934	0.160696	0.366332
533	O	0.835034	0.083387	0.366339
534	O	0.91234	0.25079	0.366226
535	C	0.765391	0.233694	0.359762
536	N	0.736715	0.213182	0.667103
537	C	0.716926	0.224752	0.646089
538	C	0.726445	0.260691	0.649826
539	N	0.754863	0.281086	0.342753
540	C	0.774758	0.269743	0.364422
541	H	0.695713	0.207362	0.627443
542	N	0.803572	0.293609	0.390905
543	O	0.825794	0.319109	0.36791
544	O	0.793103	0.305799	0.42143
545	N	0.706811	0.273579	0.630678
546	H	0.685048	0.256212	0.616235
547	N	0.785326	0.220527	0.377468
548	H	0.80694	0.237514	0.39239
549	C	0.762037	0.030836	0.359858
550	N	0.782535	0.022676	0.667163
551	C	0.770959	0.491315	0.646152
552	C	0.735018	0.464898	0.649899
553	N	0.714638	0.472914	0.342866
554	C	0.725992	0.004153	0.364542
555	H	0.788337	0.487501	0.627466
556	N	0.702141	0.009096	0.391061
557	O	0.676626	0.505815	0.3681
558	O	0.689977	0.986439	0.421589
559	N	0.722132	0.432373	0.630765
560	H	0.739494	0.427976	0.616301
561	N	0.77521	0.063949	0.377531
562	H	0.758228	0.068582	0.392459
563	C	0.964883	0.230333	0.359702
564	N	0.973036	0.258995	0.66702
565	C	0.504394	0.278784	0.646006
566	C	0.53081	0.269261	0.649733
567	N	0.522807	0.240868	0.342704
568	C	0.991575	0.220983	0.364392
569	H	0.508199	0.299969	0.627313
570	N	0.986646	0.192199	0.390921
571	O	0.489931	0.169963	0.367967
572	O	0.00931	0.202705	0.42144
573	N	0.563331	0.288892	0.630582
574	H	0.567735	0.31066	0.616142
575	N	0.93179	0.210415	0.377438
576	H	0.927168	0.188812	0.392386
577	C	0.676293	0.368995	0.62436
578	C	0.639713	0.343415	0.623845
579	C	0.626708	0.30644	0.624237
580	C	0.652296	0.295445	0.623785
581	C	0.689271	0.319414	0.957606
582	C	0.700277	0.356002	0.623815
583	H	0.643496	0.269036	0.626313
584	H	0.726676	0.373601	0.626503
585	H	0.622103	0.352212	0.62642
586	C	0.687645	0.40553	0.630798
587	C	0.714462	0.308066	0.964011
588	C	0.590168	0.281239	0.630599
589	O	0.748565	0.333289	0.638877
590	O	0.662423	0.414404	0.63902
591	O	0.581284	0.247134	0.638767
592	C	0.819664	0.127819	0.714052
593	C	0.855964	0.154206	0.714338
594	C	0.867925	0.190997	0.714052
595	C	0.841531	0.200903	0.714298
596	C	0.804738	0.176076	0.047404
597	C	0.794832	0.139775	0.714341
598	H	0.849611	0.227162	0.711697
599	H	0.76857	0.121601	0.711763
600	H	0.874143	0.146125	0.711727
601	C	0.809327	0.091418	0.708671
602	C	0.778676	0.186409	0.041967
603	C	0.904318	0.217059	0.708591
604	O	0.744934	0.160696	0.699665
605	O	0.835034	0.083387	0.699671
606	O	0.91234	0.25079	0.699559
607	C	0.765391	0.233694	0.693097
608	N	0.736715	0.213182	0.000437
609	C	0.716926	0.224752	0.979424
610	C	0.726445	0.260691	0.983162
611	N	0.754863	0.281086	0.676089
612	C	0.774758	0.269743	0.697755
613	H	0.695713	0.207362	0.960778
614	N	0.803572	0.293609	0.724237
615	O	0.825794	0.319109	0.701243
616	O	0.793103	0.305799	0.754762
617	N	0.706811	0.273579	0.964014
618	H	0.685048	0.256212	0.94957
619	N	0.785326	0.220527	0.7108
620	H	0.80694	0.237514	0.725722
621	C	0.762037	0.030836	0.69319
622	N	0.782535	0.022676	0.000495
623	C	0.770959	0.491315	0.979484
624	C	0.735018	0.464898	0.983231
625	N	0.714638	0.472914	0.676199
626	C	0.725992	0.004153	0.697874
627	H	0.788337	0.487501	0.960802
628	N	0.702141	0.009096	0.724397
629	O	0.676626	0.505815	0.701432
630	O	0.689977	0.986439	0.754922
631	N	0.722132	0.432373	0.964097
632	H	0.739494	0.427976	0.949633
633	N	0.77521	0.063949	0.710863
634	H	0.758228	0.068582	0.725792
635	C	0.964883	0.230333	0.693034
636	N	0.973036	0.258995	0.000354
637	C	0.504394	0.278784	0.979338
638	C	0.53081	0.269261	0.983065
639	N	0.522807	0.240868	0.676036
640	C	0.991575	0.220983	0.697725
641	H	0.508199	0.299969	0.960646
642	N	0.986646	0.192199	0.724254
643	O	0.489931	0.169963	0.701299
644	O	0.00931	0.202705	0.754772
645	N	0.563331	0.288892	0.963918
646	H	0.567735	0.31066	0.949477
647	N	0.93179	0.210415	0.71077
648	H	0.927168	0.188812	0.725719
649	C	0.676295	0.868995	0.957696
650	C	0.639713	0.843415	0.957178
651	C	0.626709	0.806441	0.957573
652	C	0.652293	0.795443	0.957121
653	C	0.689272	0.819414	0.290939
654	C	0.700278	0.856003	0.957151
655	H	0.643495	0.769036	0.959646
656	H	0.726677	0.873601	0.959835
657	H	0.622104	0.852212	0.959752
658	C	0.687646	0.90553	0.96413
659	C	0.714463	0.808067	0.297346
660	C	0.590168	0.78124	0.963931
661	O	0.748564	0.833289	0.972209
662	O	0.662423	0.914404	0.972352
663	O	0.581285	0.747133	0.9721
664	C	0.819665	0.62782	0.047385
665	C	0.855964	0.654205	0.047672
666	C	0.867926	0.690997	0.047385
667	C	0.841532	0.700903	0.04763
668	C	0.804739	0.676076	0.380736
669	C	0.794831	0.639776	0.047673
670	H	0.849612	0.727161	0.04503
671	H	0.768568	0.6216	0.045099
672	H	0.874142	0.646126	0.04506
673	C	0.809328	0.591419	0.042005
674	C	0.778678	0.686409	0.375302
675	C	0.904318	0.717059	0.041923
676	O	0.744935	0.660697	0.032998
677	O	0.835034	0.583385	0.033005
678	O	0.912339	0.750791	0.032893
679	C	0.765389	0.733693	0.02643
680	N	0.736716	0.713183	0.333771
681	C	0.716927	0.724751	0.312757
682	C	0.726446	0.76069	0.316494
683	N	0.754862	0.781086	0.009422
684	C	0.77476	0.769744	0.031089
685	H	0.695714	0.707361	0.294111
686	N	0.803574	0.79361	0.057572
687	O	0.825796	0.81911	0.034576
688	O	0.793104	0.805799	0.088097
689	N	0.706813	0.773579	0.297346
690	H	0.685048	0.756211	0.282903
691	N	0.785327	0.720528	0.044135
692	H	0.806941	0.737513	0.059055
693	C	0.762036	0.530835	0.026524
694	N	0.782534	0.522677	0.333827
695	C	0.770958	0.991315	0.312819
696	C	0.735019	0.964899	0.316565
697	N	0.71464	0.972914	0.009534
698	C	0.725992	0.504154	0.031208
699	H	0.788336	0.987501	0.294134
700	N	0.702142	0.509096	0.057729
701	O	0.676625	0.005814	0.034767
702	O	0.689976	0.486438	0.088255
703	N	0.722133	0.932374	0.29743
704	H	0.739493	0.927977	0.282969
705	N	0.775209	0.563948	0.044198
706	H	0.758229	0.568581	0.059125
707	C	0.964885	0.730334	0.026369
708	N	0.973038	0.758995	0.333688
709	C	0.504394	0.778784	0.312672
710	C	0.53081	0.769259	0.3164
711	N	0.522807	0.740869	0.009369
712	C	0.991576	0.720981	0.031058
713	H	0.5082	0.799969	0.293979
714	N	0.986647	0.692199	0.057588
715	O	0.48993	0.669962	0.034634
716	O	0.009311	0.702705	0.088107
717	N	0.563332	0.788892	0.29725
718	H	0.567735	0.81066	0.282809
719	N	0.931791	0.710415	0.044104
720	H	0.927169	0.688811	0.059054
721	C	0.676295	0.868995	0.291028
722	C	0.639713	0.843415	0.290512
723	C	0.626709	0.806441	0.290905
724	C	0.652293	0.795443	0.290454
725	C	0.689272	0.819414	0.62427
726	C	0.700278	0.856003	0.290483
727	H	0.643495	0.769036	0.29298
728	H	0.726677	0.873601	0.293169
729	H	0.622104	0.852212	0.293087
730	C	0.687646	0.90553	0.297464
731	C	0.714463	0.808067	0.630678
732	C	0.590168	0.78124	0.297265
733	O	0.748564	0.833289	0.305544
734	O	0.662423	0.914404	0.305685
735	O	0.581285	0.747133	0.305434
736	C	0.819665	0.62782	0.38072
737	C	0.855964	0.654205	0.381005
738	C	0.867926	0.690997	0.38072
739	C	0.841532	0.700903	0.380962
740	C	0.804739	0.676076	0.714072
741	C	0.794831	0.639776	0.381005
742	H	0.849612	0.727161	0.378364
743	H	0.768568	0.6216	0.378431
744	H	0.874142	0.646126	0.378394
745	C	0.809328	0.591419	0.375338
746	C	0.778678	0.686409	0.708634
747	C	0.904318	0.717059	0.375255
748	O	0.744935	0.660697	0.366332
749	O	0.835034	0.583385	0.366339
750	O	0.912339	0.750791	0.366226
751	C	0.765389	0.733693	0.359762
752	N	0.736716	0.713183	0.667103
753	C	0.716927	0.724751	0.646089
754	C	0.726446	0.76069	0.649826
755	N	0.754862	0.781086	0.342753
756	C	0.77476	0.769744	0.364422
757	H	0.695714	0.707361	0.627443
758	N	0.803574	0.79361	0.390905
759	O	0.825796	0.81911	0.36791
760	O	0.793104	0.805799	0.42143
761	N	0.706813	0.773579	0.630678
762	H	0.685048	0.756211	0.616235
763	N	0.785327	0.720528	0.377468
764	H	0.806941	0.737513	0.39239
765	C	0.762036	0.530835	0.359858
766	N	0.782534	0.522677	0.667163
767	C	0.770958	0.991315	0.646152
768	C	0.735019	0.964899	0.649899
769	N	0.71464	0.972914	0.342866
770	C	0.725992	0.504154	0.364542
771	H	0.788336	0.987501	0.627466
772	N	0.702142	0.509096	0.391061
773	O	0.676625	0.005814	0.3681
774	O	0.689976	0.486438	0.421589
775	N	0.722133	0.932374	0.630765
776	H	0.739493	0.927977	0.616301
777	N	0.775209	0.563948	0.377531
778	H	0.758229	0.568581	0.392459
779	C	0.964885	0.730334	0.359702
780	N	0.973038	0.758995	0.66702
781	C	0.504394	0.778784	0.646006
782	C	0.53081	0.769259	0.649733
783	N	0.522807	0.740869	0.342704
784	C	0.991576	0.720981	0.364392
785	H	0.5082	0.799969	0.627313
786	N	0.986647	0.692199	0.390921
787	O	0.48993	0.669962	0.367967
788	O	0.009311	0.702705	0.42144
789	N	0.563332	0.788892	0.630582
790	H	0.567735	0.81066	0.616142
791	N	0.931791	0.710415	0.377438
792	H	0.927169	0.688811	0.392386
793	C	0.676295	0.868995	0.62436
794	C	0.639713	0.843415	0.623845
795	C	0.626709	0.806441	0.624237
796	C	0.652293	0.795443	0.623785
797	C	0.689272	0.819414	0.957606
798	C	0.700278	0.856003	0.623815
799	H	0.643495	0.769036	0.626313
800	H	0.726677	0.873601	0.626503
801	H	0.622104	0.852212	0.62642
802	C	0.687646	0.90553	0.630798
803	C	0.714463	0.808067	0.964011
804	C	0.590168	0.78124	0.630599
805	O	0.748564	0.833289	0.638877
806	O	0.662423	0.914404	0.63902
807	O	0.581285	0.747133	0.638767
808	C	0.819665	0.62782	0.714052
809	C	0.855964	0.654205	0.714338
810	C	0.867926	0.690997	0.714052
811	C	0.841532	0.700903	0.714298
812	C	0.804739	0.676076	0.047404
813	C	0.794831	0.639776	0.714341
814	H	0.849612	0.727161	0.711697
815	H	0.768568	0.6216	0.711763
816	H	0.874142	0.646126	0.711727
817	C	0.809328	0.591419	0.708671
818	C	0.778678	0.686409	0.041967
819	C	0.904318	0.717059	0.708591
820	O	0.744935	0.660697	0.699665
821	O	0.835034	0.583385	0.699671
822	O	0.912339	0.750791	0.699559
823	C	0.765389	0.733693	0.693097
824	N	0.736716	0.713183	0.000437
825	C	0.716927	0.724751	0.979424
826	C	0.726446	0.76069	0.983162
827	N	0.754862	0.781086	0.676089
828	C	0.77476	0.769744	0.697755
829	H	0.695714	0.707361	0.960778
830	N	0.803574	0.79361	0.724237
831	O	0.825796	0.81911	0.701243
832	O	0.793104	0.805799	0.754762
833	N	0.706813	0.773579	0.964014
834	H	0.685048	0.756211	0.94957
835	N	0.785327	0.720528	0.7108
836	H	0.806941	0.737513	0.725722
837	C	0.762036	0.530835	0.69319
838	N	0.782534	0.522677	0.000495
839	C	0.770958	0.991315	0.979484
840	C	0.735019	0.964899	0.983231
841	N	0.71464	0.972914	0.676199
842	C	0.725992	0.504154	0.697874
843	H	0.788336	0.987501	0.960802
844	N	0.702142	0.509096	0.724397
845	O	0.676625	0.005814	0.701432
846	O	0.689976	0.486438	0.754922
847	N	0.722133	0.932374	0.964097
848	H	0.739493	0.927977	0.949633
849	N	0.775209	0.563948	0.710863
850	H	0.758229	0.568581	0.725792
851	C	0.964885	0.730334	0.693034
852	N	0.973038	0.758995	0.000354
853	C	0.504394	0.778784	0.979338
854	C	0.53081	0.769259	0.983065
855	N	0.522807	0.740869	0.676036
856	C	0.991576	0.720981	0.697725
857	H	0.5082	0.799969	0.960646
858	N	0.986647	0.692199	0.724254
859	O	0.48993	0.669962	0.701299
860	O	0.009311	0.702705	0.754772
861	N	0.563332	0.788892	0.963918
862	H	0.567735	0.81066	0.949477
863	N	0.931791	0.710415	0.71077
864	H	0.927169	0.688811	0.725719
