data_C504H432N216_2018-02-15_10:33:18
#******************************************
#
# CIF file created by Zeo++
# Zeo++ is an open source package to
# analyze microporous materials
#
#*******************************************

_cell_length_a		57.7401   
_cell_length_b		57.7401   
_cell_length_c		30.0354   
_cell_angle_alpha		90   
_cell_angle_beta		90   
_cell_angle_gamma		120   

_symmetry_space_group_name_H-M		'P1'
_symmetry_Int_Tables_number		1
_symmetry_cell_setting		Monoclinic

loop_
_symmetry_equiv_pos_as_xyz
'+x,+y,+z'

loop_
_atom_site_label
_atom_site_type_symbol
_atom_site_fract_x
_atom_site_fract_y
_atom_site_fract_z
1	C	0.18293	0.359764	0.952204
2	N	0.19245	0.3425	0.952357
3	C	0.175654	0.315596	0.952188
4	N	0.14887	0.306077	0.952357
5	C	0.138762	0.322872	0.952201
6	N	0.156029	0.349657	0.952367
7	C	0.185563	0.296488	0.287094
8	H	0.178002	0.283443	0.257923
9	H	0.177046	0.284197	0.983564
10	C	0.109746	0.312964	0.953779
11	H	0.10426	0.320526	0.257945
12	H	0.105975	0.321482	0.983584
13	C	0.202039	0.388782	0.953769
14	H	0.21508	0.394263	0.257928
15	H	0.214331	0.392557	0.983567
16	C	0.315305	0.139058	0.046609
17	N	0.305787	0.156324	0.046447
18	C	0.322582	0.183226	0.046622
19	N	0.349367	0.192745	0.046471
20	C	0.359473	0.17595	0.046638
21	N	0.342208	0.149165	0.046465
22	C	0.312675	0.202336	0.378374
23	H	0.321198	0.214627	0.348572
24	H	0.32023	0.215379	0.074214
25	C	0.38849	0.185858	0.045078
26	H	0.392268	0.177345	0.348606
27	H	0.393971	0.178293	0.074249
28	C	0.296196	0.110041	0.045038
29	H	0.283909	0.106268	0.348562
30	H	0.28315	0.104557	0.074206
31	C	0.272999	0.206122	0.031485
32	C	0.260069	0.202348	0.323501
33	C	0.250455	0.219363	0.310188
34	C	0.253656	0.240379	0.005206
35	N	0.26603	0.243019	0.045076
36	C	0.275546	0.227032	0.059091
37	C	0.244584	0.258447	0.326909
38	C	0.247789	0.279465	0.021926
39	C	0.238172	0.296478	0.008614
40	C	0.225244	0.292706	0.30063
41	C	0.222691	0.271792	0.273028
42	N	0.232209	0.255807	0.287041
43	H	0.213584	0.268372	0.242672
44	H	0.256894	0.282541	0.052282
45	H	0.240338	0.311449	0.029463
46	H	0.284655	0.230454	0.089446
47	H	0.257903	0.187378	0.302655
48	H	0.241345	0.216283	0.279835
49	N	0.283017	0.1891	0.04327
50	H	0.27486	0.180088	0.073205
51	N	0.215221	0.309725	0.288851
52	H	0.223371	0.318734	0.258912
53	C	0.292414	0.066578	0.031509
54	C	0.296191	0.057419	0.323531
55	C	0.279176	0.030791	0.310216
56	C	0.258152	0.012979	0.005225
57	N	0.255507	0.022716	0.045089
58	C	0.271497	0.048218	0.059106
59	C	0.24008	0.485841	0.326923
60	C	0.219059	0.468029	0.021935
61	C	0.202042	0.441401	0.008617
62	C	0.205819	0.432244	0.300638
63	C	0.226732	0.450604	0.273037
64	N	0.242721	0.476106	0.287055
65	H	0.230158	0.444917	0.242686
66	H	0.215983	0.474056	0.052292
67	H	0.187075	0.428594	0.029469
68	H	0.26807	0.053907	0.089455
69	H	0.311165	0.070222	0.302688
70	H	0.282258	0.02476	0.279866
71	N	0.309433	0.09362	0.04329
72	H	0.318438	0.094477	0.073232
73	N	0.1888	0.405202	0.288857
74	H	0.179791	0.404342	0.258918
75	C	0.431953	0.225542	0.031553
76	C	0.44111	0.238483	0.323579
77	C	0.467736	0.248094	0.310257
78	C	0.48555	0.24488	0.00526
79	N	0.475815	0.232498	0.045124
80	C	0.450315	0.222986	0.059148
81	C	0.012687	0.253948	0.326952
82	C	0.030502	0.250738	0.021959
83	C	0.057128	0.260349	0.008636
84	C	0.066284	0.273286	0.300657
85	C	0.047921	0.27584	0.273062
86	N	0.02242	0.266325	0.287084
87	H	0.053606	0.284949	0.242708
88	H	0.024476	0.241633	0.052316
89	H	0.069937	0.258189	0.029483
90	H	0.444626	0.213863	0.089491
91	H	0.428304	0.240647	0.302733
92	H	0.473764	0.257203	0.279903
93	N	0.404911	0.215517	0.043336
94	H	0.404053	0.223662	0.07328
95	N	0.093324	0.283307	0.288869
96	H	0.094178	0.275156	0.258927
97	C	0.18293	0.359764	0.285539
98	N	0.19245	0.3425	0.285691
99	C	0.175654	0.315596	0.285523
100	N	0.14887	0.306077	0.285692
101	C	0.138762	0.322872	0.285535
102	N	0.156029	0.349657	0.2857
103	C	0.185563	0.296488	0.620429
104	H	0.178002	0.283443	0.591256
105	H	0.177046	0.284197	0.316898
106	C	0.109746	0.312964	0.287113
107	H	0.10426	0.320526	0.591276
108	H	0.105975	0.321482	0.316919
109	C	0.202039	0.388782	0.287102
110	H	0.21508	0.394263	0.59126
111	H	0.214331	0.392557	0.316903
112	C	0.315305	0.139058	0.379942
113	N	0.305787	0.156324	0.379779
114	C	0.322582	0.183226	0.379955
115	N	0.349367	0.192745	0.379802
116	C	0.359473	0.17595	0.379972
117	N	0.342208	0.149165	0.379799
118	C	0.312675	0.202336	0.711708
119	H	0.321198	0.214627	0.681906
120	H	0.32023	0.215379	0.407546
121	C	0.38849	0.185858	0.378411
122	H	0.392268	0.177345	0.68194
123	H	0.393971	0.178293	0.407583
124	C	0.296196	0.110041	0.378371
125	H	0.283909	0.106268	0.681896
126	H	0.28315	0.104557	0.40754
127	C	0.272999	0.206122	0.364817
128	C	0.260069	0.202348	0.656832
129	C	0.250455	0.219363	0.643521
130	C	0.253656	0.240379	0.338538
131	N	0.26603	0.243019	0.378407
132	C	0.275546	0.227032	0.392424
133	C	0.244584	0.258447	0.660242
134	C	0.247789	0.279465	0.355258
135	C	0.238172	0.296478	0.341947
136	C	0.225244	0.292706	0.633963
137	C	0.222691	0.271792	0.606362
138	N	0.232209	0.255807	0.620375
139	H	0.213584	0.268372	0.576004
140	H	0.256894	0.282541	0.385615
141	H	0.240338	0.311449	0.362796
142	H	0.284655	0.230454	0.422778
143	H	0.257903	0.187378	0.635987
144	H	0.241345	0.216283	0.613167
145	N	0.283017	0.1891	0.376603
146	H	0.27486	0.180088	0.406537
147	N	0.215221	0.309725	0.622183
148	H	0.223371	0.318734	0.592245
149	C	0.292414	0.066578	0.364843
150	C	0.296191	0.057419	0.656862
151	C	0.279176	0.030791	0.643548
152	C	0.258152	0.012979	0.338558
153	N	0.255507	0.022716	0.378421
154	C	0.271497	0.048218	0.392441
155	C	0.24008	0.485841	0.660255
156	C	0.219059	0.468029	0.355268
157	C	0.202042	0.441401	0.34195
158	C	0.205819	0.432244	0.633969
159	C	0.226732	0.450604	0.606369
160	N	0.242721	0.476106	0.620389
161	H	0.230158	0.444917	0.576018
162	H	0.215983	0.474056	0.385625
163	H	0.187075	0.428594	0.362802
164	H	0.26807	0.053907	0.422788
165	H	0.311165	0.070222	0.63602
166	H	0.282258	0.02476	0.613197
167	N	0.309433	0.09362	0.376623
168	H	0.318438	0.094477	0.406564
169	N	0.1888	0.405202	0.62219
170	H	0.179791	0.404342	0.592252
171	C	0.431953	0.225542	0.364887
172	C	0.44111	0.238483	0.656912
173	C	0.467736	0.248094	0.643591
174	C	0.48555	0.24488	0.338594
175	N	0.475815	0.232498	0.378457
176	C	0.450315	0.222986	0.392481
177	C	0.012687	0.253948	0.660285
178	C	0.030502	0.250738	0.355291
179	C	0.057128	0.260349	0.34197
180	C	0.066284	0.273286	0.633989
181	C	0.047921	0.27584	0.606395
182	N	0.02242	0.266325	0.620415
183	H	0.053606	0.284949	0.576041
184	H	0.024476	0.241633	0.385649
185	H	0.069937	0.258189	0.362816
186	H	0.444626	0.213863	0.422825
187	H	0.428304	0.240647	0.636067
188	H	0.473764	0.257203	0.613237
189	N	0.404911	0.215517	0.376669
190	H	0.404053	0.223662	0.406614
191	N	0.093324	0.283307	0.6222
192	H	0.094178	0.275156	0.592259
193	C	0.18293	0.359764	0.618871
194	N	0.19245	0.3425	0.619024
195	C	0.175654	0.315596	0.618857
196	N	0.14887	0.306077	0.619024
197	C	0.138762	0.322872	0.618867
198	N	0.156029	0.349657	0.619034
199	C	0.185563	0.296488	0.953759
200	H	0.178002	0.283443	0.92459
201	H	0.177046	0.284197	0.65023
202	C	0.109746	0.312964	0.620445
203	H	0.10426	0.320526	0.92461
204	H	0.105975	0.321482	0.650254
205	C	0.202039	0.388782	0.620435
206	H	0.21508	0.394263	0.924594
207	H	0.214331	0.392557	0.650237
208	C	0.315305	0.139058	0.713276
209	N	0.305787	0.156324	0.713113
210	C	0.322582	0.183226	0.713289
211	N	0.349367	0.192745	0.713136
212	C	0.359473	0.17595	0.713303
213	N	0.342208	0.149165	0.713129
214	C	0.312675	0.202336	0.045041
215	H	0.321198	0.214627	0.01524
216	H	0.32023	0.215379	0.74088
217	C	0.38849	0.185858	0.711744
218	H	0.392268	0.177345	0.015273
219	H	0.393971	0.178293	0.740913
220	C	0.296196	0.110041	0.711704
221	H	0.283909	0.106268	0.015231
222	H	0.28315	0.104557	0.74087
223	C	0.272999	0.206122	0.69815
224	C	0.260069	0.202348	0.990166
225	C	0.250455	0.219363	0.976855
226	C	0.253656	0.240379	0.671871
227	N	0.26603	0.243019	0.711741
228	C	0.275546	0.227032	0.725758
229	C	0.244584	0.258447	0.993576
230	C	0.247789	0.279465	0.688592
231	C	0.238172	0.296478	0.675281
232	C	0.225244	0.292706	0.967297
233	C	0.222691	0.271792	0.939692
234	N	0.232209	0.255807	0.953706
235	H	0.213584	0.268372	0.909338
236	H	0.256894	0.282541	0.718949
237	H	0.240338	0.311449	0.696129
238	H	0.284655	0.230454	0.756112
239	H	0.257903	0.187378	0.969321
240	H	0.241345	0.216283	0.946501
241	N	0.283017	0.1891	0.709937
242	H	0.27486	0.180088	0.739871
243	N	0.215221	0.309725	0.955517
244	H	0.223371	0.318734	0.925579
245	C	0.292414	0.066578	0.698174
246	C	0.296191	0.057419	0.990196
247	C	0.279176	0.030791	0.976882
248	C	0.258152	0.012979	0.671891
249	N	0.255507	0.022716	0.711754
250	C	0.271497	0.048218	0.725771
251	C	0.24008	0.485841	0.993589
252	C	0.219059	0.468029	0.688602
253	C	0.202042	0.441401	0.675284
254	C	0.205819	0.432244	0.967303
255	C	0.226732	0.450604	0.939702
256	N	0.242721	0.476106	0.953723
257	H	0.230158	0.444917	0.909351
258	H	0.215983	0.474056	0.718959
259	H	0.187075	0.428594	0.696136
260	H	0.26807	0.053907	0.756122
261	H	0.311165	0.070222	0.969354
262	H	0.282258	0.02476	0.946531
263	N	0.309433	0.09362	0.709957
264	H	0.318438	0.094477	0.739898
265	N	0.1888	0.405202	0.955524
266	H	0.179791	0.404342	0.925586
267	C	0.431953	0.225542	0.69822
268	C	0.44111	0.238483	0.990246
269	C	0.467736	0.248094	0.976922
270	C	0.48555	0.24488	0.671925
271	N	0.475815	0.232498	0.711791
272	C	0.450315	0.222986	0.725814
273	C	0.012687	0.253948	0.993619
274	C	0.030502	0.250738	0.688625
275	C	0.057128	0.260349	0.675301
276	C	0.066284	0.273286	0.967323
277	C	0.047921	0.27584	0.939729
278	N	0.02242	0.266325	0.953749
279	H	0.053606	0.284949	0.909375
280	H	0.024476	0.241633	0.718983
281	H	0.069937	0.258189	0.696149
282	H	0.444626	0.213863	0.756155
283	H	0.428304	0.240647	0.969397
284	H	0.473764	0.257203	0.946571
285	N	0.404911	0.215517	0.710003
286	H	0.404053	0.223662	0.739944
287	N	0.093324	0.283307	0.955534
288	H	0.094178	0.275156	0.925592
289	C	0.182931	0.859764	0.952204
290	N	0.192451	0.8425	0.952357
291	C	0.175655	0.815596	0.952188
292	N	0.148871	0.806077	0.952357
293	C	0.138763	0.822872	0.952201
294	N	0.156028	0.849657	0.952367
295	C	0.185562	0.796488	0.287094
296	H	0.178002	0.783443	0.257923
297	H	0.177046	0.784197	0.983564
298	C	0.109746	0.812964	0.953779
299	H	0.10426	0.820526	0.257945
300	H	0.105976	0.821482	0.983584
301	C	0.202038	0.888782	0.953769
302	H	0.21508	0.894263	0.257928
303	H	0.214331	0.892557	0.983567
304	C	0.315306	0.639058	0.046609
305	N	0.305787	0.656324	0.046447
306	C	0.322582	0.683226	0.046622
307	N	0.349367	0.692745	0.046471
308	C	0.359474	0.67595	0.046638
309	N	0.342208	0.649165	0.046465
310	C	0.312676	0.702336	0.378374
311	H	0.321198	0.714627	0.348572
312	H	0.320231	0.715379	0.074214
313	C	0.388491	0.685858	0.045078
314	H	0.392269	0.677346	0.348606
315	H	0.393971	0.678292	0.074249
316	C	0.296198	0.610042	0.045038
317	H	0.283909	0.606267	0.348562
318	H	0.28315	0.604557	0.074206
319	C	0.272999	0.706122	0.031485
320	C	0.26007	0.702348	0.323501
321	C	0.250455	0.719363	0.310188
322	C	0.253656	0.740379	0.005206
323	N	0.266031	0.743019	0.045076
324	C	0.275547	0.727032	0.059091
325	C	0.244585	0.758447	0.326909
326	C	0.247789	0.779465	0.021926
327	C	0.238173	0.796478	0.008614
328	C	0.225244	0.792706	0.30063
329	C	0.222691	0.771792	0.273028
330	N	0.232209	0.755807	0.287041
331	H	0.213584	0.768372	0.242672
332	H	0.256894	0.782541	0.052282
333	H	0.240338	0.811449	0.029463
334	H	0.284655	0.730454	0.089446
335	H	0.257903	0.687377	0.302655
336	H	0.241345	0.716283	0.279835
337	N	0.283017	0.689099	0.04327
338	H	0.274861	0.680088	0.073205
339	N	0.215222	0.809725	0.288851
340	H	0.223372	0.818734	0.258912
341	C	0.292414	0.566578	0.031509
342	C	0.296192	0.557419	0.323531
343	C	0.279177	0.530791	0.310216
344	C	0.258152	0.512979	0.005225
345	N	0.255508	0.522716	0.045089
346	C	0.271497	0.548218	0.059106
347	C	0.24008	0.985841	0.326923
348	C	0.219059	0.968029	0.021935
349	C	0.202042	0.941401	0.008617
350	C	0.205818	0.932244	0.300638
351	C	0.226732	0.950604	0.273037
352	N	0.242722	0.976106	0.287055
353	H	0.230158	0.944917	0.242686
354	H	0.215983	0.974056	0.052292
355	H	0.187076	0.928594	0.029469
356	H	0.26807	0.553907	0.089455
357	H	0.311166	0.570222	0.302688
358	H	0.282258	0.52476	0.279866
359	N	0.309434	0.59362	0.04329
360	H	0.31844	0.594478	0.073232
361	N	0.188801	0.905202	0.288857
362	H	0.179791	0.904342	0.258918
363	C	0.431954	0.725542	0.031553
364	C	0.44111	0.738483	0.323579
365	C	0.467737	0.748094	0.310257
366	C	0.48555	0.74488	0.00526
367	N	0.475816	0.732497	0.045124
368	C	0.450315	0.722986	0.059148
369	C	0.012689	0.753948	0.326952
370	C	0.030502	0.750738	0.021959
371	C	0.057129	0.760349	0.008636
372	C	0.066284	0.773286	0.300657
373	C	0.047921	0.77584	0.273062
374	N	0.022421	0.766325	0.287084
375	H	0.053607	0.784949	0.242708
376	H	0.024475	0.741633	0.052316
377	H	0.069938	0.758189	0.029483
378	H	0.444626	0.713863	0.089491
379	H	0.428304	0.740647	0.302733
380	H	0.473765	0.757203	0.279903
381	N	0.404912	0.715517	0.043336
382	H	0.404053	0.723662	0.07328
383	N	0.093324	0.783307	0.288869
384	H	0.094179	0.775156	0.258927
385	C	0.182931	0.859764	0.285539
386	N	0.192451	0.8425	0.285691
387	C	0.175655	0.815596	0.285523
388	N	0.148871	0.806077	0.285692
389	C	0.138763	0.822872	0.285535
390	N	0.156028	0.849657	0.2857
391	C	0.185562	0.796488	0.620429
392	H	0.178002	0.783443	0.591256
393	H	0.177046	0.784197	0.316898
394	C	0.109746	0.812964	0.287113
395	H	0.10426	0.820526	0.591276
396	H	0.105976	0.821482	0.316919
397	C	0.202038	0.888782	0.287102
398	H	0.21508	0.894263	0.59126
399	H	0.214331	0.892557	0.316903
400	C	0.315306	0.639058	0.379942
401	N	0.305787	0.656324	0.379779
402	C	0.322582	0.683226	0.379955
403	N	0.349367	0.692745	0.379802
404	C	0.359474	0.67595	0.379972
405	N	0.342208	0.649165	0.379799
406	C	0.312676	0.702336	0.711708
407	H	0.321198	0.714627	0.681906
408	H	0.320231	0.715379	0.407546
409	C	0.388491	0.685858	0.378411
410	H	0.392269	0.677346	0.68194
411	H	0.393971	0.678292	0.407583
412	C	0.296198	0.610042	0.378371
413	H	0.283909	0.606267	0.681896
414	H	0.28315	0.604557	0.40754
415	C	0.272999	0.706122	0.364817
416	C	0.26007	0.702348	0.656832
417	C	0.250455	0.719363	0.643521
418	C	0.253656	0.740379	0.338538
419	N	0.266031	0.743019	0.378407
420	C	0.275547	0.727032	0.392424
421	C	0.244585	0.758447	0.660242
422	C	0.247789	0.779465	0.355258
423	C	0.238173	0.796478	0.341947
424	C	0.225244	0.792706	0.633963
425	C	0.222691	0.771792	0.606362
426	N	0.232209	0.755807	0.620375
427	H	0.213584	0.768372	0.576004
428	H	0.256894	0.782541	0.385615
429	H	0.240338	0.811449	0.362796
430	H	0.284655	0.730454	0.422778
431	H	0.257903	0.687377	0.635987
432	H	0.241345	0.716283	0.613167
433	N	0.283017	0.689099	0.376603
434	H	0.274861	0.680088	0.406537
435	N	0.215222	0.809725	0.622183
436	H	0.223372	0.818734	0.592245
437	C	0.292414	0.566578	0.364843
438	C	0.296192	0.557419	0.656862
439	C	0.279177	0.530791	0.643548
440	C	0.258152	0.512979	0.338558
441	N	0.255508	0.522716	0.378421
442	C	0.271497	0.548218	0.392441
443	C	0.24008	0.985841	0.660255
444	C	0.219059	0.968029	0.355268
445	C	0.202042	0.941401	0.34195
446	C	0.205818	0.932244	0.633969
447	C	0.226732	0.950604	0.606369
448	N	0.242722	0.976106	0.620389
449	H	0.230158	0.944917	0.576018
450	H	0.215983	0.974056	0.385625
451	H	0.187076	0.928594	0.362802
452	H	0.26807	0.553907	0.422788
453	H	0.311166	0.570222	0.63602
454	H	0.282258	0.52476	0.613197
455	N	0.309434	0.59362	0.376623
456	H	0.31844	0.594478	0.406564
457	N	0.188801	0.905202	0.62219
458	H	0.179791	0.904342	0.592252
459	C	0.431954	0.725542	0.364887
460	C	0.44111	0.738483	0.656912
461	C	0.467737	0.748094	0.643591
462	C	0.48555	0.74488	0.338594
463	N	0.475816	0.732497	0.378457
464	C	0.450315	0.722986	0.392481
465	C	0.012689	0.753948	0.660285
466	C	0.030502	0.750738	0.355291
467	C	0.057129	0.760349	0.34197
468	C	0.066284	0.773286	0.633989
469	C	0.047921	0.77584	0.606395
470	N	0.022421	0.766325	0.620415
471	H	0.053607	0.784949	0.576041
472	H	0.024475	0.741633	0.385649
473	H	0.069938	0.758189	0.362816
474	H	0.444626	0.713863	0.422825
475	H	0.428304	0.740647	0.636067
476	H	0.473765	0.757203	0.613237
477	N	0.404912	0.715517	0.376669
478	H	0.404053	0.723662	0.406614
479	N	0.093324	0.783307	0.6222
480	H	0.094179	0.775156	0.592259
481	C	0.182931	0.859764	0.618871
482	N	0.192451	0.8425	0.619024
483	C	0.175655	0.815596	0.618857
484	N	0.148871	0.806077	0.619024
485	C	0.138763	0.822872	0.618867
486	N	0.156028	0.849657	0.619034
487	C	0.185562	0.796488	0.953759
488	H	0.178002	0.783443	0.92459
489	H	0.177046	0.784197	0.65023
490	C	0.109746	0.812964	0.620445
491	H	0.10426	0.820526	0.92461
492	H	0.105976	0.821482	0.650254
493	C	0.202038	0.888782	0.620435
494	H	0.21508	0.894263	0.924594
495	H	0.214331	0.892557	0.650237
496	C	0.315306	0.639058	0.713276
497	N	0.305787	0.656324	0.713113
498	C	0.322582	0.683226	0.713289
499	N	0.349367	0.692745	0.713136
500	C	0.359474	0.67595	0.713303
501	N	0.342208	0.649165	0.713129
502	C	0.312676	0.702336	0.045041
503	H	0.321198	0.714627	0.01524
504	H	0.320231	0.715379	0.74088
505	C	0.388491	0.685858	0.711744
506	H	0.392269	0.677346	0.015273
507	H	0.393971	0.678292	0.740913
508	C	0.296198	0.610042	0.711704
509	H	0.283909	0.606267	0.015231
510	H	0.28315	0.604557	0.74087
511	C	0.272999	0.706122	0.69815
512	C	0.26007	0.702348	0.990166
513	C	0.250455	0.719363	0.976855
514	C	0.253656	0.740379	0.671871
515	N	0.266031	0.743019	0.711741
516	C	0.275547	0.727032	0.725758
517	C	0.244585	0.758447	0.993576
518	C	0.247789	0.779465	0.688592
519	C	0.238173	0.796478	0.675281
520	C	0.225244	0.792706	0.967297
521	C	0.222691	0.771792	0.939692
522	N	0.232209	0.755807	0.953706
523	H	0.213584	0.768372	0.909338
524	H	0.256894	0.782541	0.718949
525	H	0.240338	0.811449	0.696129
526	H	0.284655	0.730454	0.756112
527	H	0.257903	0.687377	0.969321
528	H	0.241345	0.716283	0.946501
529	N	0.283017	0.689099	0.709937
530	H	0.274861	0.680088	0.739871
531	N	0.215222	0.809725	0.955517
532	H	0.223372	0.818734	0.925579
533	C	0.292414	0.566578	0.698174
534	C	0.296192	0.557419	0.990196
535	C	0.279177	0.530791	0.976882
536	C	0.258152	0.512979	0.671891
537	N	0.255508	0.522716	0.711754
538	C	0.271497	0.548218	0.725771
539	C	0.24008	0.985841	0.993589
540	C	0.219059	0.968029	0.688602
541	C	0.202042	0.941401	0.675284
542	C	0.205818	0.932244	0.967303
543	C	0.226732	0.950604	0.939702
544	N	0.242722	0.976106	0.953723
545	H	0.230158	0.944917	0.909351
546	H	0.215983	0.974056	0.718959
547	H	0.187076	0.928594	0.696136
548	H	0.26807	0.553907	0.756122
549	H	0.311166	0.570222	0.969354
550	H	0.282258	0.52476	0.946531
551	N	0.309434	0.59362	0.709957
552	H	0.31844	0.594478	0.739898
553	N	0.188801	0.905202	0.955524
554	H	0.179791	0.904342	0.925586
555	C	0.431954	0.725542	0.69822
556	C	0.44111	0.738483	0.990246
557	C	0.467737	0.748094	0.976922
558	C	0.48555	0.74488	0.671925
559	N	0.475816	0.732497	0.711791
560	C	0.450315	0.722986	0.725814
561	C	0.012689	0.753948	0.993619
562	C	0.030502	0.750738	0.688625
563	C	0.057129	0.760349	0.675301
564	C	0.066284	0.773286	0.967323
565	C	0.047921	0.77584	0.939729
566	N	0.022421	0.766325	0.953749
567	H	0.053607	0.784949	0.909375
568	H	0.024475	0.741633	0.718983
569	H	0.069938	0.758189	0.696149
570	H	0.444626	0.713863	0.756155
571	H	0.428304	0.740647	0.969397
572	H	0.473765	0.757203	0.946571
573	N	0.404912	0.715517	0.710003
574	H	0.404053	0.723662	0.739944
575	N	0.093324	0.783307	0.955534
576	H	0.094179	0.775156	0.925592
577	C	0.68293	0.359764	0.952204
578	N	0.69245	0.3425	0.952357
579	C	0.675655	0.315596	0.952188
580	N	0.648869	0.306077	0.952357
581	C	0.638763	0.322872	0.952201
582	N	0.656028	0.349657	0.952367
583	C	0.685562	0.296488	0.287094
584	H	0.678002	0.283443	0.257923
585	H	0.677046	0.284197	0.983564
586	C	0.609746	0.312964	0.953779
587	H	0.60426	0.320526	0.257945
588	H	0.605976	0.321482	0.983584
589	C	0.702038	0.388782	0.953769
590	H	0.715081	0.394263	0.257928
591	H	0.714332	0.392557	0.983567
592	C	0.815306	0.139058	0.046609
593	N	0.805786	0.156324	0.046447
594	C	0.822582	0.183226	0.046622
595	N	0.849366	0.192745	0.046471
596	C	0.859474	0.17595	0.046638
597	N	0.842207	0.149165	0.046465
598	C	0.812676	0.202336	0.378374
599	H	0.821197	0.214627	0.348572
600	H	0.820231	0.215379	0.074214
601	C	0.888491	0.185858	0.045078
602	H	0.892269	0.177345	0.348606
603	H	0.89397	0.178293	0.074249
604	C	0.796197	0.110041	0.045038
605	H	0.783909	0.106268	0.348562
606	H	0.78315	0.104557	0.074206
607	C	0.772999	0.206122	0.031485
608	C	0.76007	0.202348	0.323501
609	C	0.750455	0.219363	0.310188
610	C	0.753656	0.240379	0.005206
611	N	0.76603	0.243019	0.045076
612	C	0.775547	0.227032	0.059091
613	C	0.744585	0.258447	0.326909
614	C	0.747789	0.279465	0.021926
615	C	0.738172	0.296478	0.008614
616	C	0.725244	0.292706	0.30063
617	C	0.722691	0.271792	0.273028
618	N	0.732208	0.255807	0.287041
619	H	0.713584	0.268372	0.242672
620	H	0.756893	0.282541	0.052282
621	H	0.740337	0.311449	0.029463
622	H	0.784654	0.230454	0.089446
623	H	0.757904	0.187378	0.302655
624	H	0.741345	0.216283	0.279835
625	N	0.783018	0.1891	0.04327
626	H	0.774861	0.180088	0.073205
627	N	0.71522	0.309725	0.288851
628	H	0.723372	0.318734	0.258912
629	C	0.792413	0.066578	0.031509
630	C	0.796192	0.057419	0.323531
631	C	0.779177	0.030791	0.310216
632	C	0.758151	0.012979	0.005225
633	N	0.755506	0.022716	0.045089
634	C	0.771496	0.048218	0.059106
635	C	0.74008	0.485841	0.326923
636	C	0.719059	0.468029	0.021935
637	C	0.702042	0.441401	0.008617
638	C	0.705818	0.432244	0.300638
639	C	0.726732	0.450604	0.273037
640	N	0.742722	0.476106	0.287055
641	H	0.730158	0.444917	0.242686
642	H	0.715983	0.474056	0.052292
643	H	0.687075	0.428594	0.029469
644	H	0.768069	0.053907	0.089455
645	H	0.811166	0.070222	0.302688
646	H	0.782257	0.02476	0.279866
647	N	0.809434	0.09362	0.04329
648	H	0.818439	0.094477	0.073232
649	N	0.688801	0.405202	0.288857
650	H	0.679791	0.404342	0.258918
651	C	0.931952	0.225542	0.031553
652	C	0.941111	0.238483	0.323579
653	C	0.967737	0.248094	0.310257
654	C	0.985549	0.24488	0.00526
655	N	0.975815	0.232498	0.045124
656	C	0.950314	0.222986	0.059148
657	C	0.512687	0.253948	0.326952
658	C	0.530502	0.250738	0.021959
659	C	0.557129	0.260349	0.008636
660	C	0.566284	0.273286	0.300657
661	C	0.547921	0.27584	0.273062
662	N	0.522421	0.266325	0.287084
663	H	0.553605	0.284949	0.242708
664	H	0.524475	0.241633	0.052316
665	H	0.569938	0.258189	0.029483
666	H	0.944625	0.213863	0.089491
667	H	0.928303	0.240647	0.302733
668	H	0.973765	0.257203	0.279903
669	N	0.904912	0.215517	0.043336
670	H	0.904052	0.223662	0.07328
671	N	0.593324	0.283307	0.288869
672	H	0.594179	0.275156	0.258927
673	C	0.68293	0.359764	0.285539
674	N	0.69245	0.3425	0.285691
675	C	0.675655	0.315596	0.285523
676	N	0.648869	0.306077	0.285692
677	C	0.638763	0.322872	0.285535
678	N	0.656028	0.349657	0.2857
679	C	0.685562	0.296488	0.620429
680	H	0.678002	0.283443	0.591256
681	H	0.677046	0.284197	0.316898
682	C	0.609746	0.312964	0.287113
683	H	0.60426	0.320526	0.591276
684	H	0.605976	0.321482	0.316919
685	C	0.702038	0.388782	0.287102
686	H	0.715081	0.394263	0.59126
687	H	0.714332	0.392557	0.316903
688	C	0.815306	0.139058	0.379942
689	N	0.805786	0.156324	0.379779
690	C	0.822582	0.183226	0.379955
691	N	0.849366	0.192745	0.379802
692	C	0.859474	0.17595	0.379972
693	N	0.842207	0.149165	0.379799
694	C	0.812676	0.202336	0.711708
695	H	0.821197	0.214627	0.681906
696	H	0.820231	0.215379	0.407546
697	C	0.888491	0.185858	0.378411
698	H	0.892269	0.177345	0.68194
699	H	0.89397	0.178293	0.407583
700	C	0.796197	0.110041	0.378371
701	H	0.783909	0.106268	0.681896
702	H	0.78315	0.104557	0.40754
703	C	0.772999	0.206122	0.364817
704	C	0.76007	0.202348	0.656832
705	C	0.750455	0.219363	0.643521
706	C	0.753656	0.240379	0.338538
707	N	0.76603	0.243019	0.378407
708	C	0.775547	0.227032	0.392424
709	C	0.744585	0.258447	0.660242
710	C	0.747789	0.279465	0.355258
711	C	0.738172	0.296478	0.341947
712	C	0.725244	0.292706	0.633963
713	C	0.722691	0.271792	0.606362
714	N	0.732208	0.255807	0.620375
715	H	0.713584	0.268372	0.576004
716	H	0.756893	0.282541	0.385615
717	H	0.740337	0.311449	0.362796
718	H	0.784654	0.230454	0.422778
719	H	0.757904	0.187378	0.635987
720	H	0.741345	0.216283	0.613167
721	N	0.783018	0.1891	0.376603
722	H	0.774861	0.180088	0.406537
723	N	0.71522	0.309725	0.622183
724	H	0.723372	0.318734	0.592245
725	C	0.792413	0.066578	0.364843
726	C	0.796192	0.057419	0.656862
727	C	0.779177	0.030791	0.643548
728	C	0.758151	0.012979	0.338558
729	N	0.755506	0.022716	0.378421
730	C	0.771496	0.048218	0.392441
731	C	0.74008	0.485841	0.660255
732	C	0.719059	0.468029	0.355268
733	C	0.702042	0.441401	0.34195
734	C	0.705818	0.432244	0.633969
735	C	0.726732	0.450604	0.606369
736	N	0.742722	0.476106	0.620389
737	H	0.730158	0.444917	0.576018
738	H	0.715983	0.474056	0.385625
739	H	0.687075	0.428594	0.362802
740	H	0.768069	0.053907	0.422788
741	H	0.811166	0.070222	0.63602
742	H	0.782257	0.02476	0.613197
743	N	0.809434	0.09362	0.376623
744	H	0.818439	0.094477	0.406564
745	N	0.688801	0.405202	0.62219
746	H	0.679791	0.404342	0.592252
747	C	0.931952	0.225542	0.364887
748	C	0.941111	0.238483	0.656912
749	C	0.967737	0.248094	0.643591
750	C	0.985549	0.24488	0.338594
751	N	0.975815	0.232498	0.378457
752	C	0.950314	0.222986	0.392481
753	C	0.512687	0.253948	0.660285
754	C	0.530502	0.250738	0.355291
755	C	0.557129	0.260349	0.34197
756	C	0.566284	0.273286	0.633989
757	C	0.547921	0.27584	0.606395
758	N	0.522421	0.266325	0.620415
759	H	0.553605	0.284949	0.576041
760	H	0.524475	0.241633	0.385649
761	H	0.569938	0.258189	0.362816
762	H	0.944625	0.213863	0.422825
763	H	0.928303	0.240647	0.636067
764	H	0.973765	0.257203	0.613237
765	N	0.904912	0.215517	0.376669
766	H	0.904052	0.223662	0.406614
767	N	0.593324	0.283307	0.6222
768	H	0.594179	0.275156	0.592259
769	C	0.68293	0.359764	0.618871
770	N	0.69245	0.3425	0.619024
771	C	0.675655	0.315596	0.618857
772	N	0.648869	0.306077	0.619024
773	C	0.638763	0.322872	0.618867
774	N	0.656028	0.349657	0.619034
775	C	0.685562	0.296488	0.953759
776	H	0.678002	0.283443	0.92459
777	H	0.677046	0.284197	0.65023
778	C	0.609746	0.312964	0.620445
779	H	0.60426	0.320526	0.92461
780	H	0.605976	0.321482	0.650254
781	C	0.702038	0.388782	0.620435
782	H	0.715081	0.394263	0.924594
783	H	0.714332	0.392557	0.650237
784	C	0.815306	0.139058	0.713276
785	N	0.805786	0.156324	0.713113
786	C	0.822582	0.183226	0.713289
787	N	0.849366	0.192745	0.713136
788	C	0.859474	0.17595	0.713303
789	N	0.842207	0.149165	0.713129
790	C	0.812676	0.202336	0.045041
791	H	0.821197	0.214627	0.01524
792	H	0.820231	0.215379	0.74088
793	C	0.888491	0.185858	0.711744
794	H	0.892269	0.177345	0.015273
795	H	0.89397	0.178293	0.740913
796	C	0.796197	0.110041	0.711704
797	H	0.783909	0.106268	0.015231
798	H	0.78315	0.104557	0.74087
799	C	0.772999	0.206122	0.69815
800	C	0.76007	0.202348	0.990166
801	C	0.750455	0.219363	0.976855
802	C	0.753656	0.240379	0.671871
803	N	0.76603	0.243019	0.711741
804	C	0.775547	0.227032	0.725758
805	C	0.744585	0.258447	0.993576
806	C	0.747789	0.279465	0.688592
807	C	0.738172	0.296478	0.675281
808	C	0.725244	0.292706	0.967297
809	C	0.722691	0.271792	0.939692
810	N	0.732208	0.255807	0.953706
811	H	0.713584	0.268372	0.909338
812	H	0.756893	0.282541	0.718949
813	H	0.740337	0.311449	0.696129
814	H	0.784654	0.230454	0.756112
815	H	0.757904	0.187378	0.969321
816	H	0.741345	0.216283	0.946501
817	N	0.783018	0.1891	0.709937
818	H	0.774861	0.180088	0.739871
819	N	0.71522	0.309725	0.955517
820	H	0.723372	0.318734	0.925579
821	C	0.792413	0.066578	0.698174
822	C	0.796192	0.057419	0.990196
823	C	0.779177	0.030791	0.976882
824	C	0.758151	0.012979	0.671891
825	N	0.755506	0.022716	0.711754
826	C	0.771496	0.048218	0.725771
827	C	0.74008	0.485841	0.993589
828	C	0.719059	0.468029	0.688602
829	C	0.702042	0.441401	0.675284
830	C	0.705818	0.432244	0.967303
831	C	0.726732	0.450604	0.939702
832	N	0.742722	0.476106	0.953723
833	H	0.730158	0.444917	0.909351
834	H	0.715983	0.474056	0.718959
835	H	0.687075	0.428594	0.696136
836	H	0.768069	0.053907	0.756122
837	H	0.811166	0.070222	0.969354
838	H	0.782257	0.02476	0.946531
839	N	0.809434	0.09362	0.709957
840	H	0.818439	0.094477	0.739898
841	N	0.688801	0.405202	0.955524
842	H	0.679791	0.404342	0.925586
843	C	0.931952	0.225542	0.69822
844	C	0.941111	0.238483	0.990246
845	C	0.967737	0.248094	0.976922
846	C	0.985549	0.24488	0.671925
847	N	0.975815	0.232498	0.711791
848	C	0.950314	0.222986	0.725814
849	C	0.512687	0.253948	0.993619
850	C	0.530502	0.250738	0.688625
851	C	0.557129	0.260349	0.675301
852	C	0.566284	0.273286	0.967323
853	C	0.547921	0.27584	0.939729
854	N	0.522421	0.266325	0.953749
855	H	0.553605	0.284949	0.909375
856	H	0.524475	0.241633	0.718983
857	H	0.569938	0.258189	0.696149
858	H	0.944625	0.213863	0.756155
859	H	0.928303	0.240647	0.969397
860	H	0.973765	0.257203	0.946571
861	N	0.904912	0.215517	0.710003
862	H	0.904052	0.223662	0.739944
863	N	0.593324	0.283307	0.955534
864	H	0.594179	0.275156	0.925592
865	C	0.682931	0.859764	0.952204
866	N	0.69245	0.8425	0.952357
867	C	0.675654	0.815596	0.952188
868	N	0.64887	0.806077	0.952357
869	C	0.638762	0.822872	0.952201
870	N	0.656029	0.849657	0.952367
871	C	0.685563	0.796488	0.287094
872	H	0.678003	0.783443	0.257923
873	H	0.677047	0.784197	0.983564
874	C	0.609745	0.812964	0.953779
875	H	0.60426	0.820526	0.257945
876	H	0.605975	0.821482	0.983584
877	C	0.702039	0.888782	0.953769
878	H	0.715081	0.894263	0.257928
879	H	0.714332	0.892557	0.983567
880	C	0.815306	0.639058	0.046609
881	N	0.805787	0.656324	0.046447
882	C	0.822583	0.683226	0.046622
883	N	0.849367	0.692745	0.046471
884	C	0.859475	0.67595	0.046638
885	N	0.842208	0.649165	0.046465
886	C	0.812676	0.702336	0.378374
887	H	0.821198	0.714627	0.348572
888	H	0.82023	0.715379	0.074214
889	C	0.888491	0.685858	0.045078
890	H	0.89227	0.677346	0.348606
891	H	0.893971	0.678292	0.074249
892	C	0.796199	0.610042	0.045038
893	H	0.783909	0.606267	0.348562
894	H	0.783149	0.604557	0.074206
895	C	0.772998	0.706122	0.031485
896	C	0.760069	0.702348	0.323501
897	C	0.750455	0.719363	0.310188
898	C	0.753657	0.740379	0.005206
899	N	0.766031	0.743019	0.045076
900	C	0.775547	0.727032	0.059091
901	C	0.744586	0.758447	0.326909
902	C	0.74779	0.779465	0.021926
903	C	0.738173	0.796478	0.008614
904	C	0.725245	0.792706	0.30063
905	C	0.72269	0.771792	0.273028
906	N	0.732209	0.755807	0.287041
907	H	0.713585	0.768372	0.242672
908	H	0.756894	0.782541	0.052282
909	H	0.740338	0.811449	0.029463
910	H	0.784655	0.730454	0.089446
911	H	0.757904	0.687377	0.302655
912	H	0.741345	0.716283	0.279835
913	N	0.783017	0.689099	0.04327
914	H	0.77486	0.680088	0.073205
915	N	0.715221	0.809725	0.288851
916	H	0.723371	0.818734	0.258912
917	C	0.792414	0.566578	0.031509
918	C	0.796191	0.557419	0.323531
919	C	0.779176	0.530791	0.310216
920	C	0.758152	0.512979	0.005225
921	N	0.755507	0.522716	0.045089
922	C	0.771497	0.548218	0.059106
923	C	0.740081	0.985841	0.326923
924	C	0.71906	0.968029	0.021935
925	C	0.702041	0.941401	0.008617
926	C	0.705819	0.932244	0.300638
927	C	0.726733	0.950604	0.273037
928	N	0.742723	0.976106	0.287055
929	H	0.730159	0.944917	0.242686
930	H	0.715982	0.974056	0.052292
931	H	0.687076	0.928594	0.029469
932	H	0.76807	0.553907	0.089455
933	H	0.811165	0.570222	0.302688
934	H	0.782258	0.52476	0.279866
935	N	0.809435	0.59362	0.04329
936	H	0.81844	0.594478	0.073232
937	N	0.6888	0.905202	0.288857
938	H	0.679792	0.904342	0.258918
939	C	0.931953	0.725542	0.031553
940	C	0.94111	0.738483	0.323579
941	C	0.967737	0.748094	0.310257
942	C	0.98555	0.74488	0.00526
943	N	0.975815	0.732497	0.045124
944	C	0.950315	0.722986	0.059148
945	C	0.512688	0.753948	0.326952
946	C	0.530503	0.750738	0.021959
947	C	0.557128	0.760349	0.008636
948	C	0.566285	0.773286	0.300657
949	C	0.547922	0.77584	0.273062
950	N	0.52242	0.766325	0.287084
951	H	0.553606	0.784949	0.242708
952	H	0.524476	0.741633	0.052316
953	H	0.569937	0.758189	0.029483
954	H	0.944626	0.713863	0.089491
955	H	0.928304	0.740647	0.302733
956	H	0.973764	0.757203	0.279903
957	N	0.904913	0.715517	0.043336
958	H	0.904053	0.723662	0.07328
959	N	0.593325	0.783307	0.288869
960	H	0.594178	0.775156	0.258927
961	C	0.682931	0.859764	0.285539
962	N	0.69245	0.8425	0.285691
963	C	0.675654	0.815596	0.285523
964	N	0.64887	0.806077	0.285692
965	C	0.638762	0.822872	0.285535
966	N	0.656029	0.849657	0.2857
967	C	0.685563	0.796488	0.620429
968	H	0.678003	0.783443	0.591256
969	H	0.677047	0.784197	0.316898
970	C	0.609745	0.812964	0.287113
971	H	0.60426	0.820526	0.591276
972	H	0.605975	0.821482	0.316919
973	C	0.702039	0.888782	0.287102
974	H	0.715081	0.894263	0.59126
975	H	0.714332	0.892557	0.316903
976	C	0.815306	0.639058	0.379942
977	N	0.805787	0.656324	0.379779
978	C	0.822583	0.683226	0.379955
979	N	0.849367	0.692745	0.379802
980	C	0.859475	0.67595	0.379972
981	N	0.842208	0.649165	0.379799
982	C	0.812676	0.702336	0.711708
983	H	0.821198	0.714627	0.681906
984	H	0.82023	0.715379	0.407546
985	C	0.888491	0.685858	0.378411
986	H	0.89227	0.677346	0.68194
987	H	0.893971	0.678292	0.407583
988	C	0.796199	0.610042	0.378371
989	H	0.783909	0.606267	0.681896
990	H	0.783149	0.604557	0.40754
991	C	0.772998	0.706122	0.364817
992	C	0.760069	0.702348	0.656832
993	C	0.750455	0.719363	0.643521
994	C	0.753657	0.740379	0.338538
995	N	0.766031	0.743019	0.378407
996	C	0.775547	0.727032	0.392424
997	C	0.744586	0.758447	0.660242
998	C	0.74779	0.779465	0.355258
999	C	0.738173	0.796478	0.341947
1000	C	0.725245	0.792706	0.633963
1001	C	0.72269	0.771792	0.606362
1002	N	0.732209	0.755807	0.620375
1003	H	0.713585	0.768372	0.576004
1004	H	0.756894	0.782541	0.385615
1005	H	0.740338	0.811449	0.362796
1006	H	0.784655	0.730454	0.422778
1007	H	0.757904	0.687377	0.635987
1008	H	0.741345	0.716283	0.613167
1009	N	0.783017	0.689099	0.376603
1010	H	0.77486	0.680088	0.406537
1011	N	0.715221	0.809725	0.622183
1012	H	0.723371	0.818734	0.592245
1013	C	0.792414	0.566578	0.364843
1014	C	0.796191	0.557419	0.656862
1015	C	0.779176	0.530791	0.643548
1016	C	0.758152	0.512979	0.338558
1017	N	0.755507	0.522716	0.378421
1018	C	0.771497	0.548218	0.392441
1019	C	0.740081	0.985841	0.660255
1020	C	0.71906	0.968029	0.355268
1021	C	0.702041	0.941401	0.34195
1022	C	0.705819	0.932244	0.633969
1023	C	0.726733	0.950604	0.606369
1024	N	0.742723	0.976106	0.620389
1025	H	0.730159	0.944917	0.576018
1026	H	0.715982	0.974056	0.385625
1027	H	0.687076	0.928594	0.362802
1028	H	0.76807	0.553907	0.422788
1029	H	0.811165	0.570222	0.63602
1030	H	0.782258	0.52476	0.613197
1031	N	0.809435	0.59362	0.376623
1032	H	0.81844	0.594478	0.406564
1033	N	0.6888	0.905202	0.62219
1034	H	0.679792	0.904342	0.592252
1035	C	0.931953	0.725542	0.364887
1036	C	0.94111	0.738483	0.656912
1037	C	0.967737	0.748094	0.643591
1038	C	0.98555	0.74488	0.338594
1039	N	0.975815	0.732497	0.378457
1040	C	0.950315	0.722986	0.392481
1041	C	0.512688	0.753948	0.660285
1042	C	0.530503	0.750738	0.355291
1043	C	0.557128	0.760349	0.34197
1044	C	0.566285	0.773286	0.633989
1045	C	0.547922	0.77584	0.606395
1046	N	0.52242	0.766325	0.620415
1047	H	0.553606	0.784949	0.576041
1048	H	0.524476	0.741633	0.385649
1049	H	0.569937	0.758189	0.362816
1050	H	0.944626	0.713863	0.422825
1051	H	0.928304	0.740647	0.636067
1052	H	0.973764	0.757203	0.613237
1053	N	0.904913	0.715517	0.376669
1054	H	0.904053	0.723662	0.406614
1055	N	0.593325	0.783307	0.6222
1056	H	0.594178	0.775156	0.592259
1057	C	0.682931	0.859764	0.618871
1058	N	0.69245	0.8425	0.619024
1059	C	0.675654	0.815596	0.618857
1060	N	0.64887	0.806077	0.619024
1061	C	0.638762	0.822872	0.618867
1062	N	0.656029	0.849657	0.619034
1063	C	0.685563	0.796488	0.953759
1064	H	0.678003	0.783443	0.92459
1065	H	0.677047	0.784197	0.65023
1066	C	0.609745	0.812964	0.620445
1067	H	0.60426	0.820526	0.92461
1068	H	0.605975	0.821482	0.650254
1069	C	0.702039	0.888782	0.620435
1070	H	0.715081	0.894263	0.924594
1071	H	0.714332	0.892557	0.650237
1072	C	0.815306	0.639058	0.713276
1073	N	0.805787	0.656324	0.713113
1074	C	0.822583	0.683226	0.713289
1075	N	0.849367	0.692745	0.713136
1076	C	0.859475	0.67595	0.713303
1077	N	0.842208	0.649165	0.713129
1078	C	0.812676	0.702336	0.045041
1079	H	0.821198	0.714627	0.01524
1080	H	0.82023	0.715379	0.74088
1081	C	0.888491	0.685858	0.711744
1082	H	0.89227	0.677346	0.015273
1083	H	0.893971	0.678292	0.740913
1084	C	0.796199	0.610042	0.711704
1085	H	0.783909	0.606267	0.015231
1086	H	0.783149	0.604557	0.74087
1087	C	0.772998	0.706122	0.69815
1088	C	0.760069	0.702348	0.990166
1089	C	0.750455	0.719363	0.976855
1090	C	0.753657	0.740379	0.671871
1091	N	0.766031	0.743019	0.711741
1092	C	0.775547	0.727032	0.725758
1093	C	0.744586	0.758447	0.993576
1094	C	0.74779	0.779465	0.688592
1095	C	0.738173	0.796478	0.675281
1096	C	0.725245	0.792706	0.967297
1097	C	0.72269	0.771792	0.939692
1098	N	0.732209	0.755807	0.953706
1099	H	0.713585	0.768372	0.909338
1100	H	0.756894	0.782541	0.718949
1101	H	0.740338	0.811449	0.696129
1102	H	0.784655	0.730454	0.756112
1103	H	0.757904	0.687377	0.969321
1104	H	0.741345	0.716283	0.946501
1105	N	0.783017	0.689099	0.709937
1106	H	0.77486	0.680088	0.739871
1107	N	0.715221	0.809725	0.955517
1108	H	0.723371	0.818734	0.925579
1109	C	0.792414	0.566578	0.698174
1110	C	0.796191	0.557419	0.990196
1111	C	0.779176	0.530791	0.976882
1112	C	0.758152	0.512979	0.671891
1113	N	0.755507	0.522716	0.711754
1114	C	0.771497	0.548218	0.725771
1115	C	0.740081	0.985841	0.993589
1116	C	0.71906	0.968029	0.688602
1117	C	0.702041	0.941401	0.675284
1118	C	0.705819	0.932244	0.967303
1119	C	0.726733	0.950604	0.939702
1120	N	0.742723	0.976106	0.953723
1121	H	0.730159	0.944917	0.909351
1122	H	0.715982	0.974056	0.718959
1123	H	0.687076	0.928594	0.696136
1124	H	0.76807	0.553907	0.756122
1125	H	0.811165	0.570222	0.969354
1126	H	0.782258	0.52476	0.946531
1127	N	0.809435	0.59362	0.709957
1128	H	0.81844	0.594478	0.739898
1129	N	0.6888	0.905202	0.955524
1130	H	0.679792	0.904342	0.925586
1131	C	0.931953	0.725542	0.69822
1132	C	0.94111	0.738483	0.990246
1133	C	0.967737	0.748094	0.976922
1134	C	0.98555	0.74488	0.671925
1135	N	0.975815	0.732497	0.711791
1136	C	0.950315	0.722986	0.725814
1137	C	0.512688	0.753948	0.993619
1138	C	0.530503	0.750738	0.688625
1139	C	0.557128	0.760349	0.675301
1140	C	0.566285	0.773286	0.967323
1141	C	0.547922	0.77584	0.939729
1142	N	0.52242	0.766325	0.953749
1143	H	0.553606	0.784949	0.909375
1144	H	0.524476	0.741633	0.718983
1145	H	0.569937	0.758189	0.696149
1146	H	0.944626	0.713863	0.756155
1147	H	0.928304	0.740647	0.969397
1148	H	0.973764	0.757203	0.946571
1149	N	0.904913	0.715517	0.710003
1150	H	0.904053	0.723662	0.739944
1151	N	0.593325	0.783307	0.955534
1152	H	0.594178	0.775156	0.925592
