data_C720H432N216O72_2018-02-15_10:35:33
#******************************************
#
# CIF file created by Zeo++
# Zeo++ is an open source package to
# analyze microporous materials
#
#*******************************************

_cell_length_a		46.4722   
_cell_length_b		46.4722   
_cell_length_c		29.6287   
_cell_angle_alpha		90   
_cell_angle_beta		90   
_cell_angle_gamma		120   

_symmetry_space_group_name_H-M		'P1'
_symmetry_Int_Tables_number		1
_symmetry_cell_setting		Monoclinic

loop_
_symmetry_equiv_pos_as_xyz
'+x,+y,+z'

loop_
_atom_site_label
_atom_site_type_symbol
_atom_site_fract_x
_atom_site_fract_y
_atom_site_fract_z
1	C	0.027457	0.265313	0.338095
2	C	0.046714	0.300908	0.337132
3	C	0.081865	0.319054	0.337909
4	C	0.099223	0.301338	0.339573
5	C	0.081989	0.266247	0.005989
6	C	0.04683	0.2491	0.005773
7	H	0.035543	0.314917	0.33556
8	O	0.133144	0.318359	0.340599
9	H	0.13924	0.321827	0.039403
10	H	0.035746	0.223911	0.00669
11	C	0.100624	0.249723	0.006719
12	N	0.117199	0.252385	0.300907
13	C	0.116616	0.248415	0.046961
14	N	0.10567	0.249636	0.088894
15	H	0.08478	0.249256	0.093586
16	H	0.117942	0.249572	0.115466
17	C	0.117615	0.370398	0.297218
18	C	0.100362	0.354181	0.003633
19	N	0.115822	0.369171	0.042914
20	H	0.110529	0.358782	0.266587
21	C	0.027457	0.265313	0.671428
22	C	0.046714	0.300908	0.670466
23	C	0.081865	0.319054	0.671246
24	C	0.099223	0.301338	0.672909
25	C	0.081989	0.266247	0.33932
26	C	0.04683	0.2491	0.339108
27	H	0.035543	0.314917	0.668893
28	O	0.133144	0.318359	0.673932
29	H	0.13924	0.321827	0.372737
30	H	0.035746	0.223911	0.340022
31	C	0.100624	0.249723	0.340053
32	N	0.117199	0.252385	0.634241
33	C	0.116616	0.248415	0.380294
34	N	0.10567	0.249636	0.42223
35	H	0.08478	0.249256	0.426921
36	H	0.117942	0.249572	0.448799
37	C	0.117615	0.370398	0.630552
38	C	0.100362	0.354181	0.336965
39	N	0.115822	0.369171	0.376247
40	H	0.110529	0.358782	0.599919
41	C	0.027457	0.265313	0.004764
42	C	0.046714	0.300908	0.003799
43	C	0.081865	0.319054	0.004578
44	C	0.099223	0.301338	0.006242
45	C	0.081989	0.266247	0.672656
46	C	0.04683	0.2491	0.67244
47	H	0.035543	0.314917	0.002229
48	O	0.133144	0.318359	0.007265
49	H	0.13924	0.321827	0.70607
50	H	0.035746	0.223911	0.673358
51	C	0.100624	0.249723	0.673385
52	N	0.117199	0.252385	0.967574
53	C	0.116616	0.248415	0.71363
54	N	0.10567	0.249636	0.755563
55	H	0.08478	0.249256	0.760254
56	H	0.117942	0.249572	0.782135
57	C	0.117615	0.370398	0.963885
58	C	0.100362	0.354181	0.670301
59	N	0.115822	0.369171	0.709583
60	H	0.110529	0.358782	0.933255
61	C	0.027457	0.765313	0.338095
62	C	0.046714	0.800909	0.337132
63	C	0.081865	0.819055	0.337909
64	C	0.099223	0.801339	0.339573
65	C	0.081989	0.766248	0.005989
66	C	0.04683	0.749101	0.005773
67	H	0.035541	0.814916	0.33556
68	O	0.133144	0.81836	0.340599
69	H	0.13924	0.821828	0.039403
70	H	0.035745	0.723911	0.00669
71	C	0.100624	0.749722	0.006719
72	N	0.117198	0.752383	0.300907
73	C	0.116615	0.748415	0.046961
74	N	0.105671	0.749637	0.088894
75	H	0.084779	0.749255	0.093586
76	H	0.117943	0.749573	0.115466
77	C	0.117613	0.870397	0.297218
78	C	0.100362	0.854182	0.003633
79	N	0.115823	0.869172	0.042914
80	H	0.11053	0.858783	0.266587
81	C	0.027457	0.765313	0.671428
82	C	0.046714	0.800909	0.670466
83	C	0.081865	0.819055	0.671246
84	C	0.099223	0.801339	0.672909
85	C	0.081989	0.766248	0.33932
86	C	0.04683	0.749101	0.339108
87	H	0.035541	0.814916	0.668893
88	O	0.133144	0.81836	0.673932
89	H	0.13924	0.821828	0.372737
90	H	0.035745	0.723911	0.340022
91	C	0.100624	0.749722	0.340053
92	N	0.117198	0.752383	0.634241
93	C	0.116615	0.748415	0.380294
94	N	0.105671	0.749637	0.42223
95	H	0.084779	0.749255	0.426921
96	H	0.117943	0.749573	0.448799
97	C	0.117613	0.870397	0.630552
98	C	0.100362	0.854182	0.336965
99	N	0.115823	0.869172	0.376247
100	H	0.11053	0.858783	0.599919
101	C	0.027457	0.765313	0.004764
102	C	0.046714	0.800909	0.003799
103	C	0.081865	0.819055	0.004578
104	C	0.099223	0.801339	0.006242
105	C	0.081989	0.766248	0.672656
106	C	0.04683	0.749101	0.67244
107	H	0.035541	0.814916	0.002229
108	O	0.133144	0.81836	0.007265
109	H	0.13924	0.821828	0.70607
110	H	0.035745	0.723911	0.673358
111	C	0.100624	0.749722	0.673385
112	N	0.117198	0.752383	0.967574
113	C	0.116615	0.748415	0.71363
114	N	0.105671	0.749637	0.755563
115	H	0.084779	0.749255	0.760254
116	H	0.117943	0.749573	0.782135
117	C	0.117613	0.870397	0.963885
118	C	0.100362	0.854182	0.670301
119	N	0.115823	0.869172	0.709583
120	H	0.11053	0.858783	0.933255
121	C	0.214732	0.248921	0.337475
122	C	0.196595	0.265939	0.33796
123	C	0.214316	0.301013	0.339472
124	H	0.200713	0.223735	0.336203
125	O	0.197301	0.317921	0.340424
126	H	0.193705	0.320456	0.039212
127	H	0.227021	0.197578	0.006591
128	C	0.214748	0.416482	0.339556
129	C	0.196879	0.433701	0.005935
130	C	0.214868	0.46886	0.005574
131	O	0.197853	0.382556	0.340448
132	H	0.226871	0.032406	0.336221
133	H	0.195225	0.376392	0.039225
134	H	0.200738	0.479922	0.006168
135	C	0.145419	0.250613	0.297524
136	C	0.16145	0.249308	0.003998
137	N	0.146382	0.249445	0.043319
138	H	0.157156	0.255558	0.266946
139	C	0.161716	0.415004	0.006284
140	N	0.147603	0.398627	0.300477
141	C	0.144565	0.398925	0.046613
142	N	0.156822	0.409652	0.088578
143	H	0.177186	0.43066	0.093348
144	H	0.144393	0.39739	0.115101
145	C	0.214732	0.248921	0.67081
146	C	0.196595	0.265939	0.671293
147	C	0.214316	0.301013	0.672805
148	H	0.200713	0.223735	0.669538
149	O	0.197301	0.317921	0.673757
150	H	0.193705	0.320456	0.372545
151	H	0.227021	0.197578	0.339924
152	C	0.214748	0.416482	0.672889
153	C	0.196879	0.433701	0.339266
154	C	0.214868	0.46886	0.338905
155	O	0.197853	0.382556	0.67378
156	H	0.226871	0.032406	0.669555
157	H	0.195225	0.376392	0.372558
158	H	0.200738	0.479922	0.339502
159	C	0.145419	0.250613	0.630859
160	C	0.16145	0.249308	0.337331
161	N	0.146382	0.249445	0.376652
162	H	0.157156	0.255558	0.60028
163	C	0.161716	0.415004	0.339617
164	N	0.147603	0.398627	0.633812
165	C	0.144565	0.398925	0.379946
166	N	0.156822	0.409652	0.421913
167	H	0.177186	0.43066	0.426682
168	H	0.144393	0.39739	0.448434
169	C	0.214732	0.248921	0.004143
170	C	0.196595	0.265939	0.004626
171	C	0.214316	0.301013	0.006141
172	H	0.200713	0.223735	0.002871
173	O	0.197301	0.317921	0.00709
174	H	0.193705	0.320456	0.705881
175	H	0.227021	0.197578	0.673257
176	C	0.214748	0.416482	0.006222
177	C	0.196879	0.433701	0.672599
178	C	0.214868	0.46886	0.672238
179	O	0.197853	0.382556	0.007113
180	H	0.226871	0.032406	0.002887
181	H	0.195225	0.376392	0.705891
182	H	0.200738	0.479922	0.672835
183	C	0.145419	0.250613	0.964192
184	C	0.16145	0.249308	0.670665
185	N	0.146382	0.249445	0.709988
186	H	0.157156	0.255558	0.933613
187	C	0.161716	0.415004	0.672953
188	N	0.147603	0.398627	0.967145
189	C	0.144565	0.398925	0.713279
190	N	0.156822	0.409652	0.755245
191	H	0.177186	0.43066	0.760014
192	H	0.144393	0.39739	0.78177
193	C	0.214733	0.748922	0.337475
194	C	0.196594	0.765937	0.33796
195	C	0.214317	0.801014	0.339472
196	H	0.200713	0.723734	0.336203
197	O	0.197302	0.817922	0.340424
198	H	0.193705	0.820457	0.039212
199	H	0.227021	0.697578	0.006591
200	C	0.214746	0.916481	0.339556
201	C	0.196878	0.9337	0.005935
202	C	0.214868	0.968859	0.005574
203	O	0.197853	0.882557	0.340448
204	H	0.226871	0.532407	0.336221
205	H	0.195224	0.87639	0.039225
206	H	0.200738	0.979921	0.006168
207	C	0.145419	0.750614	0.297524
208	C	0.161449	0.749307	0.003998
209	N	0.146382	0.749446	0.043319
210	H	0.157157	0.755559	0.266946
211	C	0.161717	0.915005	0.006284
212	N	0.147603	0.898628	0.300477
213	C	0.144565	0.898926	0.046613
214	N	0.156822	0.909653	0.088578
215	H	0.177186	0.930661	0.093348
216	H	0.144393	0.897391	0.115101
217	C	0.214733	0.748922	0.67081
218	C	0.196594	0.765937	0.671293
219	C	0.214317	0.801014	0.672805
220	H	0.200713	0.723734	0.669538
221	O	0.197302	0.817922	0.673757
222	H	0.193705	0.820457	0.372545
223	H	0.227021	0.697578	0.339924
224	C	0.214746	0.916481	0.672889
225	C	0.196878	0.9337	0.339266
226	C	0.214868	0.968859	0.338905
227	O	0.197853	0.882557	0.67378
228	H	0.226871	0.532407	0.669555
229	H	0.195224	0.87639	0.372558
230	H	0.200738	0.979921	0.339502
231	C	0.145419	0.750614	0.630859
232	C	0.161449	0.749307	0.337331
233	N	0.146382	0.749446	0.376652
234	H	0.157157	0.755559	0.60028
235	C	0.161717	0.915005	0.339617
236	N	0.147603	0.898628	0.633812
237	C	0.144565	0.898926	0.379946
238	N	0.156822	0.909653	0.421913
239	H	0.177186	0.930661	0.426682
240	H	0.144393	0.897391	0.448434
241	C	0.214733	0.748922	0.004143
242	C	0.196594	0.765937	0.004626
243	C	0.214317	0.801014	0.006141
244	H	0.200713	0.723734	0.002871
245	O	0.197302	0.817922	0.00709
246	H	0.193705	0.820457	0.705881
247	H	0.227021	0.697578	0.673257
248	C	0.214746	0.916481	0.006222
249	C	0.196878	0.9337	0.672599
250	C	0.214868	0.968859	0.672238
251	O	0.197853	0.882557	0.007113
252	H	0.226871	0.532407	0.002887
253	H	0.195224	0.87639	0.705891
254	H	0.200738	0.979921	0.672835
255	C	0.145419	0.750614	0.964192
256	C	0.161449	0.749307	0.670665
257	N	0.146382	0.749446	0.709988
258	H	0.157157	0.755559	0.933613
259	C	0.161717	0.915005	0.672953
260	N	0.147603	0.898628	0.967145
261	C	0.144565	0.898926	0.713279
262	N	0.156822	0.909653	0.755245
263	H	0.177186	0.930661	0.760014
264	H	0.144393	0.897391	0.78177
265	C	0.250333	0.265258	0.33823
266	C	0.249404	0.318866	0.005915
267	C	0.266551	0.300851	0.005658
268	C	0.268428	0.247276	0.338213
269	C	0.252211	0.211684	0.00575
270	C	0.269349	0.193661	0.005834
271	H	0.291743	0.314965	0.006333
272	C	0.250459	0.488256	0.338119
273	C	0.266814	0.469007	0.33736
274	C	0.249824	0.433855	0.338031
275	H	0.292001	0.480188	0.336049
276	C	0.268414	0.024333	0.338102
277	C	0.269062	0.07874	0.33796
278	C	0.252061	0.043584	0.337416
279	C	0.265884	0.354029	0.006321
280	N	0.263608	0.36818	0.300549
281	C	0.265397	0.398185	0.297344
282	C	0.266469	0.415357	0.003856
283	N	0.266025	0.399929	0.043129
284	C	0.266987	0.371154	0.046701
285	H	0.260865	0.405311	0.266743
286	N	0.265563	0.358879	0.088627
287	H	0.266046	0.338423	0.093318
288	H	0.265616	0.371203	0.115205
289	C	0.252822	0.158488	0.006507
290	N	0.255454	0.144543	0.300743
291	C	0.253702	0.11455	0.297559
292	C	0.252438	0.097252	0.004096
293	N	0.252582	0.112599	0.043299
294	C	0.251518	0.14132	0.046869
295	H	0.25859	0.10768	0.267
296	N	0.252726	0.153541	0.088762
297	H	0.252314	0.174039	0.093384
298	H	0.252662	0.14124	0.115375
299	C	0.250333	0.265258	0.671563
300	C	0.249404	0.318866	0.339246
301	C	0.266551	0.300851	0.338989
302	C	0.268428	0.247276	0.671546
303	C	0.252211	0.211684	0.339081
304	C	0.269349	0.193661	0.339168
305	H	0.291743	0.314965	0.339668
306	C	0.250459	0.488256	0.671451
307	C	0.266814	0.469007	0.670695
308	C	0.249824	0.433855	0.671364
309	H	0.292001	0.480188	0.669383
310	C	0.268414	0.024333	0.671438
311	C	0.269062	0.07874	0.671296
312	C	0.252061	0.043584	0.670749
313	C	0.265884	0.354029	0.339654
314	N	0.263608	0.36818	0.633883
315	C	0.265397	0.398185	0.630677
316	C	0.266469	0.415357	0.337188
317	N	0.266025	0.399929	0.376463
318	C	0.266987	0.371154	0.380034
319	H	0.260865	0.405311	0.600078
320	N	0.265563	0.358879	0.42196
321	H	0.266046	0.338423	0.426651
322	H	0.265616	0.371203	0.448539
323	C	0.252822	0.158488	0.33984
324	N	0.255454	0.144543	0.634075
325	C	0.253702	0.11455	0.630893
326	C	0.252438	0.097252	0.337427
327	N	0.252582	0.112599	0.376632
328	C	0.251518	0.14132	0.380203
329	H	0.25859	0.10768	0.600334
330	N	0.252726	0.153541	0.422095
331	H	0.252314	0.174039	0.426719
332	H	0.252662	0.14124	0.448708
333	C	0.250333	0.265258	0.004899
334	C	0.249404	0.318866	0.672582
335	C	0.266551	0.300851	0.672326
336	C	0.268428	0.247276	0.004879
337	C	0.252211	0.211684	0.672413
338	C	0.269349	0.193661	0.672501
339	H	0.291743	0.314965	0.673001
340	C	0.250459	0.488256	0.004784
341	C	0.266814	0.469007	0.004028
342	C	0.249824	0.433855	0.0047
343	H	0.292001	0.480188	0.002715
344	C	0.268414	0.024333	0.004771
345	C	0.269062	0.07874	0.004629
346	C	0.252061	0.043584	0.004086
347	C	0.265884	0.354029	0.672991
348	N	0.263608	0.36818	0.967216
349	C	0.265397	0.398185	0.964013
350	C	0.266469	0.415357	0.670523
351	N	0.266025	0.399929	0.709796
352	C	0.266987	0.371154	0.71337
353	H	0.260865	0.405311	0.933411
354	N	0.265563	0.358879	0.755296
355	H	0.266046	0.338423	0.759987
356	H	0.265616	0.371203	0.781872
357	C	0.252822	0.158488	0.673176
358	N	0.255454	0.144543	0.967412
359	C	0.253702	0.11455	0.964226
360	C	0.252438	0.097252	0.67076
361	N	0.252582	0.112599	0.709965
362	C	0.251518	0.14132	0.713536
363	H	0.25859	0.10768	0.933667
364	N	0.252726	0.153541	0.755431
365	H	0.252314	0.174039	0.760052
366	H	0.252662	0.14124	0.782044
367	C	0.250333	0.765259	0.33823
368	C	0.249403	0.818864	0.005915
369	C	0.266551	0.800852	0.005658
370	C	0.268429	0.747277	0.338213
371	C	0.25221	0.711683	0.00575
372	C	0.269349	0.693662	0.005834
373	H	0.291743	0.814965	0.006333
374	C	0.250457	0.988254	0.338119
375	C	0.266815	0.969008	0.33736
376	C	0.249823	0.933854	0.338031
377	H	0.292001	0.980189	0.336049
378	C	0.268414	0.524334	0.338102
379	C	0.269062	0.578739	0.33796
380	C	0.252061	0.543585	0.337416
381	C	0.265883	0.854028	0.006321
382	N	0.263609	0.868181	0.300549
383	C	0.265396	0.898183	0.297344
384	C	0.26647	0.915358	0.003856
385	N	0.266025	0.89993	0.043129
386	C	0.266986	0.871152	0.046701
387	H	0.260865	0.905312	0.266743
388	N	0.265562	0.858878	0.088627
389	H	0.266046	0.838424	0.093318
390	H	0.265617	0.871204	0.115205
391	C	0.252822	0.658488	0.006507
392	N	0.255455	0.644544	0.300743
393	C	0.253702	0.614549	0.297559
394	C	0.252439	0.597253	0.004096
395	N	0.252581	0.612598	0.043299
396	C	0.251517	0.641319	0.046869
397	H	0.25859	0.607678	0.267
398	N	0.252726	0.653541	0.088762
399	H	0.252314	0.67404	0.093384
400	H	0.252661	0.641239	0.115375
401	C	0.250333	0.765259	0.671563
402	C	0.249403	0.818864	0.339246
403	C	0.266551	0.800852	0.338989
404	C	0.268429	0.747277	0.671546
405	C	0.25221	0.711683	0.339081
406	C	0.269349	0.693662	0.339168
407	H	0.291743	0.814965	0.339668
408	C	0.250457	0.988254	0.671451
409	C	0.266815	0.969008	0.670695
410	C	0.249823	0.933854	0.671364
411	H	0.292001	0.980189	0.669383
412	C	0.268414	0.524334	0.671438
413	C	0.269062	0.578739	0.671296
414	C	0.252061	0.543585	0.670749
415	C	0.265883	0.854028	0.339654
416	N	0.263609	0.868181	0.633883
417	C	0.265396	0.898183	0.630677
418	C	0.26647	0.915358	0.337188
419	N	0.266025	0.89993	0.376463
420	C	0.266986	0.871152	0.380034
421	H	0.260865	0.905312	0.600078
422	N	0.265562	0.858878	0.42196
423	H	0.266046	0.838424	0.426651
424	H	0.265617	0.871204	0.448539
425	C	0.252822	0.658488	0.33984
426	N	0.255455	0.644544	0.634075
427	C	0.253702	0.614549	0.630893
428	C	0.252439	0.597253	0.337427
429	N	0.252581	0.612598	0.376632
430	C	0.251517	0.641319	0.380203
431	H	0.25859	0.607678	0.600334
432	N	0.252726	0.653541	0.422095
433	H	0.252314	0.67404	0.426719
434	H	0.252661	0.641239	0.448708
435	C	0.250333	0.765259	0.004899
436	C	0.249403	0.818864	0.672582
437	C	0.266551	0.800852	0.672326
438	C	0.268429	0.747277	0.004879
439	C	0.25221	0.711683	0.672413
440	C	0.269349	0.693662	0.672501
441	H	0.291743	0.814965	0.673001
442	C	0.250457	0.988254	0.004784
443	C	0.266815	0.969008	0.004028
444	C	0.249823	0.933854	0.0047
445	H	0.292001	0.980189	0.002715
446	C	0.268414	0.524334	0.004771
447	C	0.269062	0.578739	0.004629
448	C	0.252061	0.543585	0.004086
449	C	0.265883	0.854028	0.672991
450	N	0.263609	0.868181	0.967216
451	C	0.265396	0.898183	0.964013
452	C	0.26647	0.915358	0.670523
453	N	0.266025	0.89993	0.709796
454	C	0.266986	0.871152	0.71337
455	H	0.260865	0.905312	0.933411
456	N	0.265562	0.858878	0.755296
457	H	0.266046	0.838424	0.759987
458	H	0.265617	0.871204	0.781872
459	C	0.252822	0.658488	0.673176
460	N	0.255455	0.644544	0.967412
461	C	0.253702	0.614549	0.964226
462	C	0.252439	0.597253	0.67076
463	N	0.252581	0.612598	0.709965
464	C	0.251517	0.641319	0.713536
465	H	0.25859	0.607678	0.933667
466	N	0.252726	0.653541	0.755431
467	H	0.252314	0.67404	0.760052
468	H	0.252661	0.641239	0.782044
469	C	0.491381	0.247209	0.338102
470	C	0.47201	0.263424	0.005739
471	C	0.436852	0.246279	0.006013
472	C	0.419617	0.211189	0.339675
473	C	0.436971	0.19347	0.337977
474	C	0.472122	0.211612	0.337183
475	O	0.385694	0.194174	0.340711
476	H	0.483292	0.197603	0.335616
477	H	0.379599	0.190699	0.039514
478	H	0.483095	0.288614	0.006589
479	C	0.304439	0.211511	0.339334
480	C	0.322159	0.246586	0.337822
481	C	0.304026	0.263608	0.337323
482	O	0.321452	0.194601	0.340299
483	H	0.318044	0.288793	0.335998
484	H	0.324986	0.192008	0.039092
485	C	0.304005	0.043724	0.005493
486	C	0.321999	0.078883	0.005837
487	C	0.304137	0.096106	0.339506
488	O	0.321039	0.130029	0.340512
489	H	0.323576	0.136136	0.039308
490	H	0.318135	0.032661	0.00608
491	C	0.418229	0.262815	0.006699
492	N	0.401744	0.260221	0.300841
493	C	0.373548	0.262023	0.297356
494	C	0.357276	0.263198	0.003677
495	N	0.372354	0.262967	0.042997
496	C	0.402126	0.26404	0.046853
497	H	0.361809	0.257028	0.266784
498	N	0.412877	0.262656	0.08885
499	H	0.433748	0.263019	0.093673
500	H	0.400493	0.262634	0.115343
501	C	0.357161	0.097574	0.006232
502	N	0.371295	0.114016	0.300461
503	C	0.401289	0.142244	0.297258
504	C	0.418463	0.15833	0.003775
505	N	0.403053	0.143331	0.043047
506	C	0.374286	0.113585	0.046613
507	H	0.408408	0.153916	0.266665
508	N	0.362025	0.102714	0.088538
509	H	0.341576	0.081768	0.093224
510	H	0.374351	0.114981	0.115118
511	C	0.491381	0.247209	0.671435
512	C	0.47201	0.263424	0.33907
513	C	0.436852	0.246279	0.339347
514	C	0.419617	0.211189	0.673007
515	C	0.436971	0.19347	0.67131
516	C	0.472122	0.211612	0.670517
517	O	0.385694	0.194174	0.674044
518	H	0.483292	0.197603	0.66895
519	H	0.379599	0.190699	0.372849
520	H	0.483095	0.288614	0.339924
521	C	0.304439	0.211511	0.672666
522	C	0.322159	0.246586	0.671158
523	C	0.304026	0.263608	0.670658
524	O	0.321452	0.194601	0.673632
525	H	0.318044	0.288793	0.669332
526	H	0.324986	0.192008	0.372427
527	C	0.304005	0.043724	0.338827
528	C	0.321999	0.078883	0.339168
529	C	0.304137	0.096106	0.672839
530	O	0.321039	0.130029	0.673844
531	H	0.323576	0.136136	0.372643
532	H	0.318135	0.032661	0.339415
533	C	0.418229	0.262815	0.340032
534	N	0.401744	0.260221	0.634173
535	C	0.373548	0.262023	0.63069
536	C	0.357276	0.263198	0.337009
537	N	0.372354	0.262967	0.376332
538	C	0.402126	0.26404	0.380186
539	H	0.361809	0.257028	0.600118
540	N	0.412877	0.262656	0.422183
541	H	0.433748	0.263019	0.427006
542	H	0.400493	0.262634	0.448677
543	C	0.357161	0.097574	0.339563
544	N	0.371295	0.114016	0.633795
545	C	0.401289	0.142244	0.630592
546	C	0.418463	0.15833	0.337106
547	N	0.403053	0.143331	0.376382
548	C	0.374286	0.113585	0.379946
549	H	0.408408	0.153916	0.599997
550	N	0.362025	0.102714	0.421872
551	H	0.341576	0.081768	0.426557
552	H	0.374351	0.114981	0.448451
553	C	0.491381	0.247209	0.004767
554	C	0.47201	0.263424	0.672403
555	C	0.436852	0.246279	0.67268
556	C	0.419617	0.211189	0.00634
557	C	0.436971	0.19347	0.004642
558	C	0.472122	0.211612	0.003849
559	O	0.385694	0.194174	0.007376
560	H	0.483292	0.197603	0.002283
561	H	0.379599	0.190699	0.706181
562	H	0.483095	0.288614	0.673257
563	C	0.304439	0.211511	0.006003
564	C	0.322159	0.246586	0.004491
565	C	0.304026	0.263608	0.003991
566	O	0.321452	0.194601	0.006966
567	H	0.318044	0.288793	0.002665
568	H	0.324986	0.192008	0.705759
569	C	0.304005	0.043724	0.67216
570	C	0.321999	0.078883	0.672504
571	C	0.304137	0.096106	0.006171
572	O	0.321039	0.130029	0.007177
573	H	0.323576	0.136136	0.705975
574	H	0.318135	0.032661	0.672747
575	C	0.418229	0.262815	0.673365
576	N	0.401744	0.260221	0.967509
577	C	0.373548	0.262023	0.964023
578	C	0.357276	0.263198	0.670341
579	N	0.372354	0.262967	0.709664
580	C	0.402126	0.26404	0.713522
581	H	0.361809	0.257028	0.933451
582	N	0.412877	0.262656	0.755519
583	H	0.433748	0.263019	0.760342
584	H	0.400493	0.262634	0.78201
585	C	0.357161	0.097574	0.672896
586	N	0.371295	0.114016	0.967128
587	C	0.401289	0.142244	0.963925
588	C	0.418463	0.15833	0.670439
589	N	0.403053	0.143331	0.709715
590	C	0.374286	0.113585	0.713279
591	H	0.408408	0.153916	0.933333
592	N	0.362025	0.102714	0.755205
593	H	0.341576	0.081768	0.759893
594	H	0.374351	0.114981	0.781787
595	C	0.491382	0.74721	0.338102
596	C	0.472011	0.763425	0.005739
597	C	0.436851	0.746278	0.006013
598	C	0.419616	0.711189	0.339675
599	C	0.43697	0.693471	0.337977
600	C	0.472121	0.711611	0.337183
601	O	0.385694	0.694174	0.340711
602	H	0.483292	0.697603	0.335616
603	H	0.379599	0.690698	0.039514
604	H	0.483095	0.788615	0.006589
605	C	0.304439	0.711512	0.339334
606	C	0.322159	0.746586	0.337822
607	C	0.304025	0.763606	0.337323
608	O	0.321452	0.694601	0.340299
609	H	0.318044	0.788794	0.335998
610	H	0.324985	0.692007	0.039092
611	C	0.304006	0.543724	0.005493
612	C	0.322	0.578883	0.005837
613	C	0.304136	0.596105	0.339506
614	O	0.321038	0.630028	0.340512
615	H	0.323575	0.636136	0.039308
616	H	0.318133	0.53266	0.00608
617	C	0.418229	0.762816	0.006699
618	N	0.401745	0.760222	0.300841
619	C	0.373547	0.762021	0.297356
620	C	0.357276	0.763199	0.003677
621	N	0.372355	0.762968	0.042997
622	C	0.402125	0.764039	0.046853
623	H	0.361808	0.757027	0.266784
624	N	0.412877	0.762655	0.08885
625	H	0.433748	0.76302	0.093673
626	H	0.400493	0.762632	0.115343
627	C	0.35716	0.597573	0.006232
628	N	0.371296	0.614017	0.300461
629	C	0.401289	0.642243	0.297258
630	C	0.418463	0.658329	0.003775
631	N	0.403052	0.643332	0.043047
632	C	0.374286	0.613585	0.046613
633	H	0.408409	0.653916	0.266665
634	N	0.362024	0.602714	0.088538
635	H	0.341576	0.581768	0.093224
636	H	0.374352	0.614981	0.115118
637	C	0.491382	0.74721	0.671435
638	C	0.472011	0.763425	0.33907
639	C	0.436851	0.746278	0.339347
640	C	0.419616	0.711189	0.673007
641	C	0.43697	0.693471	0.67131
642	C	0.472121	0.711611	0.670517
643	O	0.385694	0.694174	0.674044
644	H	0.483292	0.697603	0.66895
645	H	0.379599	0.690698	0.372849
646	H	0.483095	0.788615	0.339924
647	C	0.304439	0.711512	0.672666
648	C	0.322159	0.746586	0.671158
649	C	0.304025	0.763606	0.670658
650	O	0.321452	0.694601	0.673632
651	H	0.318044	0.788794	0.669332
652	H	0.324985	0.692007	0.372427
653	C	0.304006	0.543724	0.338827
654	C	0.322	0.578883	0.339168
655	C	0.304136	0.596105	0.672839
656	O	0.321038	0.630028	0.673844
657	H	0.323575	0.636136	0.372643
658	H	0.318133	0.53266	0.339415
659	C	0.418229	0.762816	0.340032
660	N	0.401745	0.760222	0.634173
661	C	0.373547	0.762021	0.63069
662	C	0.357276	0.763199	0.337009
663	N	0.372355	0.762968	0.376332
664	C	0.402125	0.764039	0.380186
665	H	0.361808	0.757027	0.600118
666	N	0.412877	0.762655	0.422183
667	H	0.433748	0.76302	0.427006
668	H	0.400493	0.762632	0.448677
669	C	0.35716	0.597573	0.339563
670	N	0.371296	0.614017	0.633795
671	C	0.401289	0.642243	0.630592
672	C	0.418463	0.658329	0.337106
673	N	0.403052	0.643332	0.376382
674	C	0.374286	0.613585	0.379946
675	H	0.408409	0.653916	0.599997
676	N	0.362024	0.602714	0.421872
677	H	0.341576	0.581768	0.426557
678	H	0.374352	0.614981	0.448451
679	C	0.491382	0.74721	0.004767
680	C	0.472011	0.763425	0.672403
681	C	0.436851	0.746278	0.67268
682	C	0.419616	0.711189	0.00634
683	C	0.43697	0.693471	0.004642
684	C	0.472121	0.711611	0.003849
685	O	0.385694	0.694174	0.007376
686	H	0.483292	0.697603	0.002283
687	H	0.379599	0.690698	0.706181
688	H	0.483095	0.788615	0.673257
689	C	0.304439	0.711512	0.006003
690	C	0.322159	0.746586	0.004491
691	C	0.304025	0.763606	0.003991
692	O	0.321452	0.694601	0.006966
693	H	0.318044	0.788794	0.002665
694	H	0.324985	0.692007	0.705759
695	C	0.304006	0.543724	0.67216
696	C	0.322	0.578883	0.672504
697	C	0.304136	0.596105	0.006171
698	O	0.321038	0.630028	0.007177
699	H	0.323575	0.636136	0.705975
700	H	0.318133	0.53266	0.672747
701	C	0.418229	0.762816	0.673365
702	N	0.401745	0.760222	0.967509
703	C	0.373547	0.762021	0.964023
704	C	0.357276	0.763199	0.670341
705	N	0.372355	0.762968	0.709664
706	C	0.402125	0.764039	0.713522
707	H	0.361808	0.757027	0.933451
708	N	0.412877	0.762655	0.755519
709	H	0.433748	0.76302	0.760342
710	H	0.400493	0.762632	0.78201
711	C	0.35716	0.597573	0.672896
712	N	0.371296	0.614017	0.967128
713	C	0.401289	0.642243	0.963925
714	C	0.418463	0.658329	0.670439
715	N	0.403052	0.643332	0.709715
716	C	0.374286	0.613585	0.713279
717	H	0.408409	0.653916	0.933333
718	N	0.362024	0.602714	0.755205
719	H	0.341576	0.581768	0.759893
720	H	0.374352	0.614981	0.781787
721	C	0.527456	0.265313	0.338095
722	C	0.546715	0.300908	0.337132
723	C	0.581866	0.319054	0.337909
724	C	0.599223	0.301338	0.339573
725	C	0.58199	0.266247	0.005989
726	C	0.54683	0.2491	0.005773
727	H	0.535543	0.314917	0.33556
728	O	0.633144	0.318359	0.340599
729	C	0.991381	0.247209	0.338102
730	C	0.97201	0.263424	0.005739
731	C	0.936852	0.246279	0.006013
732	C	0.919617	0.211189	0.339675
733	C	0.936971	0.19347	0.337977
734	C	0.972122	0.211612	0.337183
735	O	0.885694	0.194174	0.340711
736	H	0.983294	0.197603	0.335616
737	H	0.63924	0.321827	0.039403
738	H	0.879599	0.190699	0.039514
739	H	0.535746	0.223911	0.00669
740	H	0.983095	0.288614	0.006589
741	C	0.750334	0.265258	0.33823
742	C	0.714732	0.248921	0.337475
743	C	0.696594	0.265939	0.33796
744	C	0.714317	0.301013	0.339472
745	C	0.749405	0.318866	0.005915
746	C	0.766551	0.300851	0.005658
747	H	0.700714	0.223735	0.336203
748	O	0.697302	0.317921	0.340424
749	C	0.768428	0.247276	0.338213
750	C	0.752211	0.211684	0.00575
751	C	0.769349	0.193661	0.005834
752	C	0.80444	0.211511	0.339334
753	C	0.822158	0.246586	0.337822
754	C	0.804025	0.263608	0.337323
755	O	0.821452	0.194601	0.340299
756	H	0.818044	0.288793	0.335998
757	H	0.693706	0.320456	0.039212
758	H	0.824986	0.192008	0.039092
759	H	0.791743	0.314965	0.006333
760	H	0.72702	0.197578	0.006591
761	C	0.750459	0.488256	0.338119
762	C	0.766813	0.469007	0.33736
763	C	0.749825	0.433855	0.338031
764	C	0.714748	0.416482	0.339556
765	C	0.69688	0.433701	0.005935
766	C	0.714868	0.46886	0.005574
767	H	0.792	0.480188	0.336049
768	O	0.697852	0.382556	0.340448
769	C	0.768414	0.024333	0.338102
770	C	0.804005	0.043724	0.005493
771	C	0.821999	0.078883	0.005837
772	C	0.804137	0.096106	0.339506
773	C	0.769062	0.07874	0.33796
774	C	0.752061	0.043584	0.337416
775	O	0.821039	0.130029	0.340512
776	H	0.726871	0.032406	0.336221
777	H	0.695226	0.376392	0.039225
778	H	0.823576	0.136136	0.039308
779	H	0.70074	0.479922	0.006168
780	H	0.818135	0.032661	0.00608
781	C	0.600626	0.249723	0.006719
782	N	0.6172	0.252385	0.300907
783	C	0.64542	0.250613	0.297524
784	C	0.66145	0.249308	0.003998
785	N	0.646383	0.249445	0.043319
786	C	0.616616	0.248415	0.046961
787	H	0.657155	0.255558	0.266946
788	N	0.605669	0.249636	0.088894
789	H	0.584781	0.249256	0.093586
790	H	0.617941	0.249572	0.115466
791	C	0.765885	0.354029	0.006321
792	N	0.763608	0.36818	0.300549
793	C	0.765397	0.398185	0.297344
794	C	0.766468	0.415357	0.003856
795	N	0.766026	0.399929	0.043129
796	C	0.766987	0.371154	0.046701
797	H	0.760865	0.405311	0.266743
798	N	0.765564	0.358879	0.088627
799	H	0.766046	0.338423	0.093318
800	H	0.765617	0.371203	0.115205
801	C	0.661715	0.415004	0.006284
802	N	0.647603	0.398627	0.300477
803	C	0.617615	0.370398	0.297218
804	C	0.600363	0.354181	0.003633
805	N	0.615822	0.369171	0.042914
806	C	0.644565	0.398925	0.046613
807	H	0.610529	0.358782	0.266587
808	N	0.656823	0.409652	0.088578
809	H	0.677185	0.43066	0.093348
810	H	0.644394	0.39739	0.115101
811	C	0.918229	0.262815	0.006699
812	N	0.901744	0.260221	0.300841
813	C	0.873548	0.262023	0.297356
814	C	0.857276	0.263198	0.003677
815	N	0.872354	0.262967	0.042997
816	C	0.902126	0.26404	0.046853
817	H	0.861809	0.257028	0.266784
818	N	0.912877	0.262656	0.08885
819	H	0.933748	0.263019	0.093673
820	H	0.900493	0.262634	0.115343
821	C	0.752823	0.158488	0.006507
822	N	0.755454	0.144543	0.300743
823	C	0.753702	0.11455	0.297559
824	C	0.752438	0.097252	0.004096
825	N	0.752582	0.112599	0.043299
826	C	0.751519	0.14132	0.046869
827	H	0.75859	0.10768	0.267
828	N	0.752727	0.153541	0.088762
829	H	0.752314	0.174039	0.093384
830	H	0.752662	0.14124	0.115375
831	C	0.857161	0.097574	0.006232
832	N	0.871295	0.114016	0.300461
833	C	0.901289	0.142244	0.297258
834	C	0.918465	0.15833	0.003775
835	N	0.903053	0.143331	0.043047
836	C	0.874288	0.113585	0.046613
837	H	0.90841	0.153916	0.266665
838	N	0.862025	0.102714	0.088538
839	H	0.841578	0.081768	0.093224
840	H	0.874351	0.114981	0.115118
841	C	0.527456	0.265313	0.671428
842	C	0.546715	0.300908	0.670466
843	C	0.581866	0.319054	0.671246
844	C	0.599223	0.301338	0.672909
845	C	0.58199	0.266247	0.33932
846	C	0.54683	0.2491	0.339108
847	H	0.535543	0.314917	0.668893
848	O	0.633144	0.318359	0.673932
849	C	0.991381	0.247209	0.671435
850	C	0.97201	0.263424	0.33907
851	C	0.936852	0.246279	0.339347
852	C	0.919617	0.211189	0.673007
853	C	0.936971	0.19347	0.67131
854	C	0.972122	0.211612	0.670517
855	O	0.885694	0.194174	0.674044
856	H	0.983294	0.197603	0.66895
857	H	0.63924	0.321827	0.372737
858	H	0.879599	0.190699	0.372849
859	H	0.535746	0.223911	0.340022
860	H	0.983095	0.288614	0.339924
861	C	0.750334	0.265258	0.671563
862	C	0.714732	0.248921	0.67081
863	C	0.696594	0.265939	0.671293
864	C	0.714317	0.301013	0.672805
865	C	0.749405	0.318866	0.339246
866	C	0.766551	0.300851	0.338989
867	H	0.700714	0.223735	0.669538
868	O	0.697302	0.317921	0.673757
869	C	0.768428	0.247276	0.671546
870	C	0.752211	0.211684	0.339081
871	C	0.769349	0.193661	0.339168
872	C	0.80444	0.211511	0.672666
873	C	0.822158	0.246586	0.671158
874	C	0.804025	0.263608	0.670658
875	O	0.821452	0.194601	0.673632
876	H	0.818044	0.288793	0.669332
877	H	0.693706	0.320456	0.372545
878	H	0.824986	0.192008	0.372427
879	H	0.791743	0.314965	0.339668
880	H	0.72702	0.197578	0.339924
881	C	0.750459	0.488256	0.671451
882	C	0.766813	0.469007	0.670695
883	C	0.749825	0.433855	0.671364
884	C	0.714748	0.416482	0.672889
885	C	0.69688	0.433701	0.339266
886	C	0.714868	0.46886	0.338905
887	H	0.792	0.480188	0.669383
888	O	0.697852	0.382556	0.67378
889	C	0.768414	0.024333	0.671438
890	C	0.804005	0.043724	0.338827
891	C	0.821999	0.078883	0.339168
892	C	0.804137	0.096106	0.672839
893	C	0.769062	0.07874	0.671296
894	C	0.752061	0.043584	0.670749
895	O	0.821039	0.130029	0.673844
896	H	0.726871	0.032406	0.669555
897	H	0.695226	0.376392	0.372558
898	H	0.823576	0.136136	0.372643
899	H	0.70074	0.479922	0.339502
900	H	0.818135	0.032661	0.339415
901	C	0.600626	0.249723	0.340053
902	N	0.6172	0.252385	0.634241
903	C	0.64542	0.250613	0.630859
904	C	0.66145	0.249308	0.337331
905	N	0.646383	0.249445	0.376652
906	C	0.616616	0.248415	0.380294
907	H	0.657155	0.255558	0.60028
908	N	0.605669	0.249636	0.42223
909	H	0.584781	0.249256	0.426921
910	H	0.617941	0.249572	0.448799
911	C	0.765885	0.354029	0.339654
912	N	0.763608	0.36818	0.633883
913	C	0.765397	0.398185	0.630677
914	C	0.766468	0.415357	0.337188
915	N	0.766026	0.399929	0.376463
916	C	0.766987	0.371154	0.380034
917	H	0.760865	0.405311	0.600078
918	N	0.765564	0.358879	0.42196
919	H	0.766046	0.338423	0.426651
920	H	0.765617	0.371203	0.448539
921	C	0.661715	0.415004	0.339617
922	N	0.647603	0.398627	0.633812
923	C	0.617615	0.370398	0.630552
924	C	0.600363	0.354181	0.336965
925	N	0.615822	0.369171	0.376247
926	C	0.644565	0.398925	0.379946
927	H	0.610529	0.358782	0.599919
928	N	0.656823	0.409652	0.421913
929	H	0.677185	0.43066	0.426682
930	H	0.644394	0.39739	0.448434
931	C	0.918229	0.262815	0.340032
932	N	0.901744	0.260221	0.634173
933	C	0.873548	0.262023	0.63069
934	C	0.857276	0.263198	0.337009
935	N	0.872354	0.262967	0.376332
936	C	0.902126	0.26404	0.380186
937	H	0.861809	0.257028	0.600118
938	N	0.912877	0.262656	0.422183
939	H	0.933748	0.263019	0.427006
940	H	0.900493	0.262634	0.448677
941	C	0.752823	0.158488	0.33984
942	N	0.755454	0.144543	0.634075
943	C	0.753702	0.11455	0.630893
944	C	0.752438	0.097252	0.337427
945	N	0.752582	0.112599	0.376632
946	C	0.751519	0.14132	0.380203
947	H	0.75859	0.10768	0.600334
948	N	0.752727	0.153541	0.422095
949	H	0.752314	0.174039	0.426719
950	H	0.752662	0.14124	0.448708
951	C	0.857161	0.097574	0.339563
952	N	0.871295	0.114016	0.633795
953	C	0.901289	0.142244	0.630592
954	C	0.918465	0.15833	0.337106
955	N	0.903053	0.143331	0.376382
956	C	0.874288	0.113585	0.379946
957	H	0.90841	0.153916	0.599997
958	N	0.862025	0.102714	0.421872
959	H	0.841578	0.081768	0.426557
960	H	0.874351	0.114981	0.448451
961	C	0.527456	0.265313	0.004764
962	C	0.546715	0.300908	0.003799
963	C	0.581866	0.319054	0.004578
964	C	0.599223	0.301338	0.006242
965	C	0.58199	0.266247	0.672656
966	C	0.54683	0.2491	0.67244
967	H	0.535543	0.314917	0.002229
968	O	0.633144	0.318359	0.007265
969	C	0.991381	0.247209	0.004767
970	C	0.97201	0.263424	0.672403
971	C	0.936852	0.246279	0.67268
972	C	0.919617	0.211189	0.00634
973	C	0.936971	0.19347	0.004642
974	C	0.972122	0.211612	0.003849
975	O	0.885694	0.194174	0.007376
976	H	0.983294	0.197603	0.002283
977	H	0.63924	0.321827	0.70607
978	H	0.879599	0.190699	0.706181
979	H	0.535746	0.223911	0.673358
980	H	0.983095	0.288614	0.673257
981	C	0.750334	0.265258	0.004899
982	C	0.714732	0.248921	0.004143
983	C	0.696594	0.265939	0.004626
984	C	0.714317	0.301013	0.006141
985	C	0.749405	0.318866	0.672582
986	C	0.766551	0.300851	0.672326
987	H	0.700714	0.223735	0.002871
988	O	0.697302	0.317921	0.00709
989	C	0.768428	0.247276	0.004879
990	C	0.752211	0.211684	0.672413
991	C	0.769349	0.193661	0.672501
992	C	0.80444	0.211511	0.006003
993	C	0.822158	0.246586	0.004491
994	C	0.804025	0.263608	0.003991
995	O	0.821452	0.194601	0.006966
996	H	0.818044	0.288793	0.002665
997	H	0.693706	0.320456	0.705881
998	H	0.824986	0.192008	0.705759
999	H	0.791743	0.314965	0.673001
1000	H	0.72702	0.197578	0.673257
1001	C	0.750459	0.488256	0.004784
1002	C	0.766813	0.469007	0.004028
1003	C	0.749825	0.433855	0.0047
1004	C	0.714748	0.416482	0.006222
1005	C	0.69688	0.433701	0.672599
1006	C	0.714868	0.46886	0.672238
1007	H	0.792	0.480188	0.002715
1008	O	0.697852	0.382556	0.007113
1009	C	0.768414	0.024333	0.004771
1010	C	0.804005	0.043724	0.67216
1011	C	0.821999	0.078883	0.672504
1012	C	0.804137	0.096106	0.006171
1013	C	0.769062	0.07874	0.004629
1014	C	0.752061	0.043584	0.004086
1015	O	0.821039	0.130029	0.007177
1016	H	0.726871	0.032406	0.002887
1017	H	0.695226	0.376392	0.705891
1018	H	0.823576	0.136136	0.705975
1019	H	0.70074	0.479922	0.672835
1020	H	0.818135	0.032661	0.672747
1021	C	0.600626	0.249723	0.673385
1022	N	0.6172	0.252385	0.967574
1023	C	0.64542	0.250613	0.964192
1024	C	0.66145	0.249308	0.670665
1025	N	0.646383	0.249445	0.709988
1026	C	0.616616	0.248415	0.71363
1027	H	0.657155	0.255558	0.933613
1028	N	0.605669	0.249636	0.755563
1029	H	0.584781	0.249256	0.760254
1030	H	0.617941	0.249572	0.782135
1031	C	0.765885	0.354029	0.672991
1032	N	0.763608	0.36818	0.967216
1033	C	0.765397	0.398185	0.964013
1034	C	0.766468	0.415357	0.670523
1035	N	0.766026	0.399929	0.709796
1036	C	0.766987	0.371154	0.71337
1037	H	0.760865	0.405311	0.933411
1038	N	0.765564	0.358879	0.755296
1039	H	0.766046	0.338423	0.759987
1040	H	0.765617	0.371203	0.781872
1041	C	0.661715	0.415004	0.672953
1042	N	0.647603	0.398627	0.967145
1043	C	0.617615	0.370398	0.963885
1044	C	0.600363	0.354181	0.670301
1045	N	0.615822	0.369171	0.709583
1046	C	0.644565	0.398925	0.713279
1047	H	0.610529	0.358782	0.933255
1048	N	0.656823	0.409652	0.755245
1049	H	0.677185	0.43066	0.760014
1050	H	0.644394	0.39739	0.78177
1051	C	0.918229	0.262815	0.673365
1052	N	0.901744	0.260221	0.967509
1053	C	0.873548	0.262023	0.964023
1054	C	0.857276	0.263198	0.670341
1055	N	0.872354	0.262967	0.709664
1056	C	0.902126	0.26404	0.713522
1057	H	0.861809	0.257028	0.933451
1058	N	0.912877	0.262656	0.755519
1059	H	0.933748	0.263019	0.760342
1060	H	0.900493	0.262634	0.78201
1061	C	0.752823	0.158488	0.673176
1062	N	0.755454	0.144543	0.967412
1063	C	0.753702	0.11455	0.964226
1064	C	0.752438	0.097252	0.67076
1065	N	0.752582	0.112599	0.709965
1066	C	0.751519	0.14132	0.713536
1067	H	0.75859	0.10768	0.933667
1068	N	0.752727	0.153541	0.755431
1069	H	0.752314	0.174039	0.760052
1070	H	0.752662	0.14124	0.782044
1071	C	0.857161	0.097574	0.672896
1072	N	0.871295	0.114016	0.967128
1073	C	0.901289	0.142244	0.963925
1074	C	0.918465	0.15833	0.670439
1075	N	0.903053	0.143331	0.709715
1076	C	0.874288	0.113585	0.713279
1077	H	0.90841	0.153916	0.933333
1078	N	0.862025	0.102714	0.755205
1079	H	0.841578	0.081768	0.759893
1080	H	0.874351	0.114981	0.781787
1081	C	0.527457	0.765313	0.338095
1082	C	0.546715	0.800909	0.337132
1083	C	0.581866	0.819055	0.337909
1084	C	0.599223	0.801339	0.339573
1085	C	0.58199	0.766248	0.005989
1086	C	0.546831	0.749101	0.005773
1087	H	0.535542	0.814916	0.33556
1088	O	0.633144	0.81836	0.340599
1089	C	0.991383	0.74721	0.338102
1090	C	0.972012	0.763425	0.005739
1091	C	0.936852	0.746278	0.006013
1092	C	0.919616	0.711189	0.339675
1093	C	0.93697	0.693471	0.337977
1094	C	0.97212	0.711611	0.337183
1095	O	0.885695	0.694174	0.340711
1096	H	0.983292	0.697603	0.335616
1097	H	0.63924	0.821828	0.039403
1098	H	0.879599	0.690698	0.039514
1099	H	0.535746	0.723911	0.00669
1100	H	0.983096	0.788615	0.006589
1101	C	0.750333	0.765259	0.33823
1102	C	0.714733	0.748922	0.337475
1103	C	0.696595	0.765937	0.33796
1104	C	0.714316	0.801014	0.339472
1105	C	0.749403	0.818864	0.005915
1106	C	0.766553	0.800852	0.005658
1107	H	0.700713	0.723734	0.336203
1108	O	0.697301	0.817922	0.340424
1109	C	0.768429	0.747277	0.338213
1110	C	0.75221	0.711683	0.00575
1111	C	0.76935	0.693662	0.005834
1112	C	0.804439	0.711512	0.339334
1113	C	0.822159	0.746586	0.337822
1114	C	0.804026	0.763606	0.337323
1115	O	0.821453	0.694601	0.340299
1116	H	0.818044	0.788794	0.335998
1117	H	0.693705	0.820457	0.039212
1118	H	0.824985	0.692007	0.039092
1119	H	0.791743	0.814965	0.006333
1120	H	0.727021	0.697578	0.006591
1121	C	0.750459	0.988254	0.338119
1122	C	0.766815	0.969008	0.33736
1123	C	0.749823	0.933854	0.338031
1124	C	0.714746	0.916481	0.339556
1125	C	0.696878	0.9337	0.005935
1126	C	0.714868	0.968859	0.005574
1127	H	0.792002	0.980189	0.336049
1128	O	0.697853	0.882557	0.340448
1129	C	0.768414	0.524334	0.338102
1130	C	0.804006	0.543724	0.005493
1131	C	0.822001	0.578883	0.005837
1132	C	0.804138	0.596105	0.339506
1133	C	0.769063	0.578739	0.33796
1134	C	0.75206	0.543585	0.337416
1135	O	0.821037	0.630028	0.340512
1136	H	0.726872	0.532407	0.336221
1137	H	0.695224	0.87639	0.039225
1138	H	0.823577	0.636136	0.039308
1139	H	0.700738	0.979921	0.006168
1140	H	0.818133	0.53266	0.00608
1141	C	0.600624	0.749722	0.006719
1142	N	0.617198	0.752383	0.300907
1143	C	0.645419	0.750614	0.297524
1144	C	0.661449	0.749307	0.003998
1145	N	0.646382	0.749446	0.043319
1146	C	0.616615	0.748415	0.046961
1147	H	0.657157	0.755559	0.266946
1148	N	0.605671	0.749637	0.088894
1149	H	0.584779	0.749255	0.093586
1150	H	0.617943	0.749573	0.115466
1151	C	0.765883	0.854028	0.006321
1152	N	0.76361	0.868181	0.300549
1153	C	0.765397	0.898183	0.297344
1154	C	0.76647	0.915358	0.003856
1155	N	0.766025	0.89993	0.043129
1156	C	0.766985	0.871152	0.046701
1157	H	0.760866	0.905312	0.266743
1158	N	0.765562	0.858878	0.088627
1159	H	0.766045	0.838424	0.093318
1160	H	0.765617	0.871204	0.115205
1161	C	0.661717	0.915005	0.006284
1162	N	0.647603	0.898628	0.300477
1163	C	0.617614	0.870397	0.297218
1164	C	0.600362	0.854182	0.003633
1165	N	0.615823	0.869172	0.042914
1166	C	0.644566	0.898926	0.046613
1167	H	0.610529	0.858783	0.266587
1168	N	0.656822	0.909653	0.088578
1169	H	0.677186	0.930661	0.093348
1170	H	0.644393	0.897391	0.115101
1171	C	0.91823	0.762816	0.006699
1172	N	0.901746	0.760222	0.300841
1173	C	0.873546	0.762021	0.297356
1174	C	0.857277	0.763199	0.003677
1175	N	0.872354	0.762968	0.042997
1176	C	0.902126	0.764039	0.046853
1177	H	0.861809	0.757027	0.266784
1178	N	0.912877	0.762655	0.08885
1179	H	0.933748	0.76302	0.093673
1180	H	0.900493	0.762632	0.115343
1181	C	0.752822	0.658488	0.006507
1182	N	0.755456	0.644544	0.300743
1183	C	0.753703	0.614549	0.297559
1184	C	0.75244	0.597253	0.004096
1185	N	0.752581	0.612598	0.043299
1186	C	0.751517	0.641319	0.046869
1187	H	0.758591	0.607678	0.267
1188	N	0.752726	0.653541	0.088762
1189	H	0.752313	0.67404	0.093384
1190	H	0.752661	0.641239	0.115375
1191	C	0.857161	0.597573	0.006232
1192	N	0.871296	0.614017	0.300461
1193	C	0.90129	0.642243	0.297258
1194	C	0.918463	0.658329	0.003775
1195	N	0.903052	0.643332	0.043047
1196	C	0.874286	0.613585	0.046613
1197	H	0.908409	0.653916	0.266665
1198	N	0.862023	0.602714	0.088538
1199	H	0.841577	0.581768	0.093224
1200	H	0.874352	0.614981	0.115118
1201	C	0.527457	0.765313	0.671428
1202	C	0.546715	0.800909	0.670466
1203	C	0.581866	0.819055	0.671246
1204	C	0.599223	0.801339	0.672909
1205	C	0.58199	0.766248	0.33932
1206	C	0.546831	0.749101	0.339108
1207	H	0.535542	0.814916	0.668893
1208	O	0.633144	0.81836	0.673932
1209	C	0.991383	0.74721	0.671435
1210	C	0.972012	0.763425	0.33907
1211	C	0.936852	0.746278	0.339347
1212	C	0.919616	0.711189	0.673007
1213	C	0.93697	0.693471	0.67131
1214	C	0.97212	0.711611	0.670517
1215	O	0.885695	0.694174	0.674044
1216	H	0.983292	0.697603	0.66895
1217	H	0.63924	0.821828	0.372737
1218	H	0.879599	0.690698	0.372849
1219	H	0.535746	0.723911	0.340022
1220	H	0.983096	0.788615	0.339924
1221	C	0.750333	0.765259	0.671563
1222	C	0.714733	0.748922	0.67081
1223	C	0.696595	0.765937	0.671293
1224	C	0.714316	0.801014	0.672805
1225	C	0.749403	0.818864	0.339246
1226	C	0.766553	0.800852	0.338989
1227	H	0.700713	0.723734	0.669538
1228	O	0.697301	0.817922	0.673757
1229	C	0.768429	0.747277	0.671546
1230	C	0.75221	0.711683	0.339081
1231	C	0.76935	0.693662	0.339168
1232	C	0.804439	0.711512	0.672666
1233	C	0.822159	0.746586	0.671158
1234	C	0.804026	0.763606	0.670658
1235	O	0.821453	0.694601	0.673632
1236	H	0.818044	0.788794	0.669332
1237	H	0.693705	0.820457	0.372545
1238	H	0.824985	0.692007	0.372427
1239	H	0.791743	0.814965	0.339668
1240	H	0.727021	0.697578	0.339924
1241	C	0.750459	0.988254	0.671451
1242	C	0.766815	0.969008	0.670695
1243	C	0.749823	0.933854	0.671364
1244	C	0.714746	0.916481	0.672889
1245	C	0.696878	0.9337	0.339266
1246	C	0.714868	0.968859	0.338905
1247	H	0.792002	0.980189	0.669383
1248	O	0.697853	0.882557	0.67378
1249	C	0.768414	0.524334	0.671438
1250	C	0.804006	0.543724	0.338827
1251	C	0.822001	0.578883	0.339168
1252	C	0.804138	0.596105	0.672839
1253	C	0.769063	0.578739	0.671296
1254	C	0.75206	0.543585	0.670749
1255	O	0.821037	0.630028	0.673844
1256	H	0.726872	0.532407	0.669555
1257	H	0.695224	0.87639	0.372558
1258	H	0.823577	0.636136	0.372643
1259	H	0.700738	0.979921	0.339502
1260	H	0.818133	0.53266	0.339415
1261	C	0.600624	0.749722	0.340053
1262	N	0.617198	0.752383	0.634241
1263	C	0.645419	0.750614	0.630859
1264	C	0.661449	0.749307	0.337331
1265	N	0.646382	0.749446	0.376652
1266	C	0.616615	0.748415	0.380294
1267	H	0.657157	0.755559	0.60028
1268	N	0.605671	0.749637	0.42223
1269	H	0.584779	0.749255	0.426921
1270	H	0.617943	0.749573	0.448799
1271	C	0.765883	0.854028	0.339654
1272	N	0.76361	0.868181	0.633883
1273	C	0.765397	0.898183	0.630677
1274	C	0.76647	0.915358	0.337188
1275	N	0.766025	0.89993	0.376463
1276	C	0.766985	0.871152	0.380034
1277	H	0.760866	0.905312	0.600078
1278	N	0.765562	0.858878	0.42196
1279	H	0.766045	0.838424	0.426651
1280	H	0.765617	0.871204	0.448539
1281	C	0.661717	0.915005	0.339617
1282	N	0.647603	0.898628	0.633812
1283	C	0.617614	0.870397	0.630552
1284	C	0.600362	0.854182	0.336965
1285	N	0.615823	0.869172	0.376247
1286	C	0.644566	0.898926	0.379946
1287	H	0.610529	0.858783	0.599919
1288	N	0.656822	0.909653	0.421913
1289	H	0.677186	0.930661	0.426682
1290	H	0.644393	0.897391	0.448434
1291	C	0.91823	0.762816	0.340032
1292	N	0.901746	0.760222	0.634173
1293	C	0.873546	0.762021	0.63069
1294	C	0.857277	0.763199	0.337009
1295	N	0.872354	0.762968	0.376332
1296	C	0.902126	0.764039	0.380186
1297	H	0.861809	0.757027	0.600118
1298	N	0.912877	0.762655	0.422183
1299	H	0.933748	0.76302	0.427006
1300	H	0.900493	0.762632	0.448677
1301	C	0.752822	0.658488	0.33984
1302	N	0.755456	0.644544	0.634075
1303	C	0.753703	0.614549	0.630893
1304	C	0.75244	0.597253	0.337427
1305	N	0.752581	0.612598	0.376632
1306	C	0.751517	0.641319	0.380203
1307	H	0.758591	0.607678	0.600334
1308	N	0.752726	0.653541	0.422095
1309	H	0.752313	0.67404	0.426719
1310	H	0.752661	0.641239	0.448708
1311	C	0.857161	0.597573	0.339563
1312	N	0.871296	0.614017	0.633795
1313	C	0.90129	0.642243	0.630592
1314	C	0.918463	0.658329	0.337106
1315	N	0.903052	0.643332	0.376382
1316	C	0.874286	0.613585	0.379946
1317	H	0.908409	0.653916	0.599997
1318	N	0.862023	0.602714	0.421872
1319	H	0.841577	0.581768	0.426557
1320	H	0.874352	0.614981	0.448451
1321	C	0.527457	0.765313	0.004764
1322	C	0.546715	0.800909	0.003799
1323	C	0.581866	0.819055	0.004578
1324	C	0.599223	0.801339	0.006242
1325	C	0.58199	0.766248	0.672656
1326	C	0.546831	0.749101	0.67244
1327	H	0.535542	0.814916	0.002229
1328	O	0.633144	0.81836	0.007265
1329	C	0.991383	0.74721	0.004767
1330	C	0.972012	0.763425	0.672403
1331	C	0.936852	0.746278	0.67268
1332	C	0.919616	0.711189	0.00634
1333	C	0.93697	0.693471	0.004642
1334	C	0.97212	0.711611	0.003849
1335	O	0.885695	0.694174	0.007376
1336	H	0.983292	0.697603	0.002283
1337	H	0.63924	0.821828	0.70607
1338	H	0.879599	0.690698	0.706181
1339	H	0.535746	0.723911	0.673358
1340	H	0.983096	0.788615	0.673257
1341	C	0.750333	0.765259	0.004899
1342	C	0.714733	0.748922	0.004143
1343	C	0.696595	0.765937	0.004626
1344	C	0.714316	0.801014	0.006141
1345	C	0.749403	0.818864	0.672582
1346	C	0.766553	0.800852	0.672326
1347	H	0.700713	0.723734	0.002871
1348	O	0.697301	0.817922	0.00709
1349	C	0.768429	0.747277	0.004879
1350	C	0.75221	0.711683	0.672413
1351	C	0.76935	0.693662	0.672501
1352	C	0.804439	0.711512	0.006003
1353	C	0.822159	0.746586	0.004491
1354	C	0.804026	0.763606	0.003991
1355	O	0.821453	0.694601	0.006966
1356	H	0.818044	0.788794	0.002665
1357	H	0.693705	0.820457	0.705881
1358	H	0.824985	0.692007	0.705759
1359	H	0.791743	0.814965	0.673001
1360	H	0.727021	0.697578	0.673257
1361	C	0.750459	0.988254	0.004784
1362	C	0.766815	0.969008	0.004028
1363	C	0.749823	0.933854	0.0047
1364	C	0.714746	0.916481	0.006222
1365	C	0.696878	0.9337	0.672599
1366	C	0.714868	0.968859	0.672238
1367	H	0.792002	0.980189	0.002715
1368	O	0.697853	0.882557	0.007113
1369	C	0.768414	0.524334	0.004771
1370	C	0.804006	0.543724	0.67216
1371	C	0.822001	0.578883	0.672504
1372	C	0.804138	0.596105	0.006171
1373	C	0.769063	0.578739	0.004629
1374	C	0.75206	0.543585	0.004086
1375	O	0.821037	0.630028	0.007177
1376	H	0.726872	0.532407	0.002887
1377	H	0.695224	0.87639	0.705891
1378	H	0.823577	0.636136	0.705975
1379	H	0.700738	0.979921	0.672835
1380	H	0.818133	0.53266	0.672747
1381	C	0.600624	0.749722	0.673385
1382	N	0.617198	0.752383	0.967574
1383	C	0.645419	0.750614	0.964192
1384	C	0.661449	0.749307	0.670665
1385	N	0.646382	0.749446	0.709988
1386	C	0.616615	0.748415	0.71363
1387	H	0.657157	0.755559	0.933613
1388	N	0.605671	0.749637	0.755563
1389	H	0.584779	0.749255	0.760254
1390	H	0.617943	0.749573	0.782135
1391	C	0.765883	0.854028	0.672991
1392	N	0.76361	0.868181	0.967216
1393	C	0.765397	0.898183	0.964013
1394	C	0.76647	0.915358	0.670523
1395	N	0.766025	0.89993	0.709796
1396	C	0.766985	0.871152	0.71337
1397	H	0.760866	0.905312	0.933411
1398	N	0.765562	0.858878	0.755296
1399	H	0.766045	0.838424	0.759987
1400	H	0.765617	0.871204	0.781872
1401	C	0.661717	0.915005	0.672953
1402	N	0.647603	0.898628	0.967145
1403	C	0.617614	0.870397	0.963885
1404	C	0.600362	0.854182	0.670301
1405	N	0.615823	0.869172	0.709583
1406	C	0.644566	0.898926	0.713279
1407	H	0.610529	0.858783	0.933255
1408	N	0.656822	0.909653	0.755245
1409	H	0.677186	0.930661	0.760014
1410	H	0.644393	0.897391	0.78177
1411	C	0.91823	0.762816	0.673365
1412	N	0.901746	0.760222	0.967509
1413	C	0.873546	0.762021	0.964023
1414	C	0.857277	0.763199	0.670341
1415	N	0.872354	0.762968	0.709664
1416	C	0.902126	0.764039	0.713522
1417	H	0.861809	0.757027	0.933451
1418	N	0.912877	0.762655	0.755519
1419	H	0.933748	0.76302	0.760342
1420	H	0.900493	0.762632	0.78201
1421	C	0.752822	0.658488	0.673176
1422	N	0.755456	0.644544	0.967412
1423	C	0.753703	0.614549	0.964226
1424	C	0.75244	0.597253	0.67076
1425	N	0.752581	0.612598	0.709965
1426	C	0.751517	0.641319	0.713536
1427	H	0.758591	0.607678	0.933667
1428	N	0.752726	0.653541	0.755431
1429	H	0.752313	0.67404	0.760052
1430	H	0.752661	0.641239	0.782044
1431	C	0.857161	0.597573	0.672896
1432	N	0.871296	0.614017	0.967128
1433	C	0.90129	0.642243	0.963925
1434	C	0.918463	0.658329	0.670439
1435	N	0.903052	0.643332	0.709715
1436	C	0.874286	0.613585	0.713279
1437	H	0.908409	0.653916	0.933333
1438	N	0.862023	0.602714	0.755205
1439	H	0.841577	0.581768	0.759893
1440	H	0.874352	0.614981	0.781787
