data_C504H216N144_2018-02-15_10:39:34
#******************************************
#
# CIF file created by Zeo++
# Zeo++ is an open source package to
# analyze microporous materials
#
#*******************************************

_cell_length_a		43.9997   
_cell_length_b		43.9996   
_cell_length_c		29.8292   
_cell_angle_alpha		90   
_cell_angle_beta		90   
_cell_angle_gamma		120   

_symmetry_space_group_name_H-M		'P1'
_symmetry_Int_Tables_number		1
_symmetry_cell_setting		Monoclinic

loop_
_symmetry_equiv_pos_as_xyz
'+x,+y,+z'

loop_
_atom_site_label
_atom_site_type_symbol
_atom_site_fract_x
_atom_site_fract_y
_atom_site_fract_z
1	C	0.022817	0.262126	0.334646
2	N	0.041985	0.271711	0.296185
3	C	0.040624	0.271031	0.043083
4	N	0.021427	0.26143	0.081458
5	C	0.022817	0.262126	0.66798
6	N	0.041985	0.271711	0.629517
7	C	0.040624	0.271031	0.376416
8	N	0.021427	0.26143	0.414792
9	C	0.022817	0.262126	0.001311
10	N	0.041985	0.271711	0.962852
11	C	0.040624	0.271031	0.709751
12	N	0.021427	0.26143	0.748126
13	C	0.022817	0.762127	0.334646
14	N	0.041984	0.771711	0.296185
15	C	0.040624	0.771031	0.043083
16	N	0.021426	0.761432	0.081458
17	C	0.022817	0.762127	0.66798
18	N	0.041984	0.771711	0.629517
19	C	0.040624	0.771031	0.376416
20	N	0.021426	0.761432	0.414792
21	C	0.022817	0.762127	0.001311
22	N	0.041984	0.771711	0.962852
23	C	0.040624	0.771031	0.709751
24	N	0.021426	0.761432	0.748126
25	C	0.096628	0.299036	0.003138
26	C	0.077578	0.289509	0.043765
27	H	0.090509	0.295976	0.073865
28	C	0.077646	0.289544	0.295784
29	H	0.090376	0.295908	0.265603
30	C	0.096628	0.299036	0.336472
31	C	0.077578	0.289509	0.377097
32	H	0.090509	0.295976	0.407198
33	C	0.077646	0.289544	0.629118
34	H	0.090376	0.295908	0.598937
35	C	0.096628	0.299036	0.669803
36	C	0.077578	0.289509	0.710431
37	H	0.090509	0.295976	0.740533
38	C	0.077646	0.289544	0.96245
39	H	0.090376	0.295908	0.932271
40	C	0.096626	0.799036	0.003138
41	C	0.077577	0.789509	0.043765
42	H	0.090508	0.795976	0.073865
43	C	0.077646	0.789543	0.295784
44	H	0.090376	0.795907	0.265603
45	C	0.096626	0.799036	0.336472
46	C	0.077577	0.789509	0.377097
47	H	0.090508	0.795976	0.407198
48	C	0.077646	0.789543	0.629118
49	H	0.090376	0.795907	0.598937
50	C	0.096626	0.799036	0.669803
51	C	0.077577	0.789509	0.710431
52	H	0.090508	0.795976	0.740533
53	C	0.077646	0.789543	0.96245
54	H	0.090376	0.795907	0.932271
55	C	0.133756	0.317598	0.003203
56	C	0.15249	0.354674	0.003229
57	C	0.189569	0.373402	0.003203
58	C	0.207912	0.354667	0.00323
59	C	0.189559	0.317587	0.003205
60	C	0.152481	0.299243	0.003233
61	H	0.234819	0.368116	0.003215
62	H	0.139026	0.272338	0.003216
63	H	0.13904	0.368132	0.003214
64	C	0.374832	0.18813	0.002934
65	C	0.356098	0.151051	0.002962
66	C	0.319018	0.132325	0.002934
67	C	0.300676	0.151059	0.002964
68	C	0.319028	0.188138	0.002934
69	C	0.356106	0.206482	0.002964
70	H	0.273769	0.137609	0.002973
71	H	0.369564	0.233388	0.002973
72	H	0.369549	0.137595	0.002972
73	C	0.300469	0.206705	0.336275
74	C	0.290951	0.216221	0.295628
75	N	0.273117	0.234049	0.296106
76	C	0.263557	0.243605	0.334608
77	C	0.272489	0.234677	0.043008
78	C	0.29097	0.216203	0.043609
79	H	0.297454	0.209717	0.073682
80	C	0.24503	0.262122	0.334649
81	C	0.208119	0.29902	0.00314
82	C	0.217645	0.289496	0.043767
83	H	0.297296	0.209876	0.26542
84	N	0.235444	0.271703	0.296187
85	C	0.236126	0.271024	0.043087
86	N	0.245726	0.261427	0.081461
87	N	0.262914	0.244248	0.081424
88	H	0.21118	0.295963	0.073868
89	C	0.21761	0.28953	0.295786
90	H	0.211246	0.295894	0.265605
91	C	0.300452	0.095197	0.336275
92	C	0.290935	0.076163	0.295626
93	N	0.273107	0.040502	0.296103
94	C	0.263553	0.021384	0.334605
95	C	0.272478	0.039244	0.043004
96	C	0.290953	0.076199	0.043606
97	H	0.297438	0.089169	0.07368
98	C	0.245036	0.48434	0.334645
99	C	0.208136	0.410528	0.003138
100	C	0.217662	0.429581	0.043764
101	H	0.297281	0.088853	0.265419
102	N	0.235454	0.465172	0.296184
103	C	0.236135	0.466534	0.043083
104	N	0.24573	0.485731	0.081457
105	N	0.26291	0.020098	0.08142
106	H	0.211195	0.416648	0.073865
107	C	0.217627	0.42951	0.295783
108	H	0.211263	0.416782	0.265603
109	C	0.411961	0.20669	0.336275
110	C	0.430995	0.216209	0.295626
111	N	0.466655	0.234042	0.296103
112	C	0.485773	0.243602	0.334605
113	C	0.467912	0.23467	0.043005
114	C	0.430958	0.21619	0.043607
115	H	0.417989	0.209705	0.07368
116	H	0.418305	0.209864	0.265419
117	N	0.487058	0.244244	0.081421
118	C	0.133756	0.317598	0.336536
119	C	0.15249	0.354674	0.336563
120	C	0.189569	0.373402	0.336536
121	C	0.207912	0.354667	0.336563
122	C	0.189559	0.317587	0.336539
123	C	0.152481	0.299243	0.336566
124	H	0.234819	0.368116	0.336549
125	H	0.139026	0.272338	0.336549
126	H	0.13904	0.368132	0.336546
127	C	0.374832	0.18813	0.336268
128	C	0.356098	0.151051	0.336295
129	C	0.319018	0.132325	0.336268
130	C	0.300676	0.151059	0.336298
131	C	0.319028	0.188138	0.336268
132	C	0.356106	0.206482	0.336298
133	H	0.273769	0.137609	0.336308
134	H	0.369564	0.233388	0.336308
135	H	0.369549	0.137595	0.336305
136	C	0.300469	0.206705	0.669609
137	C	0.290951	0.216221	0.628961
138	N	0.273117	0.234049	0.62944
139	C	0.263557	0.243605	0.667943
140	C	0.272489	0.234677	0.376343
141	C	0.29097	0.216203	0.376943
142	H	0.297454	0.209717	0.407017
143	C	0.24503	0.262122	0.667983
144	C	0.208119	0.29902	0.336472
145	C	0.217645	0.289496	0.3771
146	H	0.297296	0.209876	0.598756
147	N	0.235444	0.271703	0.629521
148	C	0.236126	0.271024	0.37642
149	N	0.245726	0.261427	0.414795
150	N	0.262914	0.244248	0.414758
151	H	0.21118	0.295963	0.407202
152	C	0.21761	0.28953	0.629118
153	H	0.211246	0.295894	0.59894
154	C	0.300452	0.095197	0.669606
155	C	0.290935	0.076163	0.628961
156	N	0.273107	0.040502	0.629437
157	C	0.263553	0.021384	0.667939
158	C	0.272478	0.039244	0.376336
159	C	0.290953	0.076199	0.376939
160	H	0.297438	0.089169	0.407014
161	C	0.245036	0.48434	0.66798
162	C	0.208136	0.410528	0.336472
163	C	0.217662	0.429581	0.377097
164	H	0.297281	0.088853	0.598752
165	N	0.235454	0.465172	0.629517
166	C	0.236135	0.466534	0.376416
167	N	0.24573	0.485731	0.414792
168	N	0.26291	0.020098	0.414755
169	H	0.211195	0.416648	0.407198
170	C	0.217627	0.42951	0.629118
171	H	0.211263	0.416782	0.598937
172	C	0.411961	0.20669	0.669606
173	C	0.430995	0.216209	0.628961
174	N	0.466655	0.234042	0.629437
175	C	0.485773	0.243602	0.667939
176	C	0.467912	0.23467	0.376339
177	C	0.430958	0.21619	0.376939
178	H	0.417989	0.209705	0.407014
179	H	0.418305	0.209864	0.598752
180	N	0.487058	0.244244	0.414755
181	C	0.133756	0.317598	0.66987
182	C	0.15249	0.354674	0.669897
183	C	0.189569	0.373402	0.66987
184	C	0.207912	0.354667	0.669897
185	C	0.189559	0.317587	0.66987
186	C	0.152481	0.299243	0.669901
187	H	0.234819	0.368116	0.669881
188	H	0.139026	0.272338	0.669884
189	H	0.13904	0.368132	0.669881
190	C	0.374832	0.18813	0.669599
191	C	0.356098	0.151051	0.669629
192	C	0.319018	0.132325	0.669599
193	C	0.300676	0.151059	0.669632
194	C	0.319028	0.188138	0.669602
195	C	0.356106	0.206482	0.669632
196	H	0.273769	0.137609	0.669639
197	H	0.369564	0.233388	0.669639
198	H	0.369549	0.137595	0.669639
199	C	0.300469	0.206705	0.002942
200	C	0.290951	0.216221	0.962295
201	N	0.273117	0.234049	0.962771
202	C	0.263557	0.243605	0.001274
203	C	0.272489	0.234677	0.709674
204	C	0.29097	0.216203	0.710277
205	H	0.297454	0.209717	0.740348
206	C	0.24503	0.262122	0.001314
207	C	0.208119	0.29902	0.669807
208	C	0.217645	0.289496	0.710435
209	H	0.297296	0.209876	0.932087
210	N	0.235444	0.271703	0.962855
211	C	0.236126	0.271024	0.709754
212	N	0.245726	0.261427	0.748129
213	N	0.262914	0.244248	0.748089
214	H	0.21118	0.295963	0.740533
215	C	0.21761	0.28953	0.962453
216	H	0.211246	0.295894	0.932271
217	C	0.300452	0.095197	0.00294
218	C	0.290935	0.076163	0.962292
219	N	0.273107	0.040502	0.962768
220	C	0.263553	0.021384	0.001271
221	C	0.272478	0.039244	0.70967
222	C	0.290953	0.076199	0.710274
223	H	0.297438	0.089169	0.740345
224	C	0.245036	0.48434	0.001311
225	C	0.208136	0.410528	0.669803
226	C	0.217662	0.429581	0.710431
227	H	0.297281	0.088853	0.932087
228	N	0.235454	0.465172	0.962852
229	C	0.236135	0.466534	0.709751
230	N	0.24573	0.485731	0.748123
231	N	0.26291	0.020098	0.748086
232	H	0.211195	0.416648	0.740533
233	C	0.217627	0.42951	0.96245
234	H	0.211263	0.416782	0.932271
235	C	0.411961	0.20669	0.00294
236	C	0.430995	0.216209	0.962292
237	N	0.466655	0.234042	0.962771
238	C	0.485773	0.243602	0.001271
239	C	0.467912	0.23467	0.70967
240	C	0.430958	0.21619	0.710274
241	H	0.417989	0.209705	0.740348
242	H	0.418305	0.209864	0.932087
243	N	0.487058	0.244244	0.748086
244	C	0.133755	0.817598	0.003203
245	C	0.152489	0.854674	0.003229
246	C	0.189569	0.873402	0.003203
247	C	0.207912	0.854666	0.00323
248	C	0.18956	0.81759	0.003205
249	C	0.152482	0.799246	0.003233
250	H	0.234818	0.868116	0.003215
251	H	0.139026	0.772338	0.003216
252	H	0.13904	0.868132	0.003214
253	C	0.374833	0.688131	0.002934
254	C	0.356098	0.651052	0.002962
255	C	0.319019	0.632324	0.002934
256	C	0.300676	0.65106	0.002964
257	C	0.319029	0.688139	0.002934
258	C	0.356107	0.706483	0.002964
259	H	0.273769	0.63761	0.002973
260	H	0.369562	0.733388	0.002973
261	H	0.369548	0.637594	0.002972
262	C	0.300469	0.706706	0.336275
263	C	0.290951	0.716222	0.295628
264	N	0.273117	0.734049	0.296106
265	C	0.263556	0.743604	0.334608
266	C	0.272488	0.734676	0.043008
267	C	0.29097	0.716204	0.043609
268	H	0.297455	0.709719	0.073682
269	C	0.24503	0.762122	0.334649
270	C	0.208119	0.79902	0.00314
271	C	0.217644	0.789496	0.043767
272	H	0.297296	0.709876	0.26542
273	N	0.235444	0.771703	0.296187
274	C	0.236125	0.771023	0.043087
275	N	0.245725	0.761426	0.081461
276	N	0.262913	0.744247	0.081424
277	H	0.211179	0.795963	0.073868
278	C	0.21761	0.78953	0.295786
279	H	0.211247	0.795897	0.265605
280	C	0.300452	0.595198	0.336275
281	C	0.290935	0.576164	0.295626
282	N	0.273107	0.540501	0.296103
283	C	0.263551	0.521383	0.334605
284	C	0.272479	0.539244	0.043004
285	C	0.290954	0.5762	0.043606
286	H	0.297439	0.58917	0.07368
287	C	0.245036	0.98434	0.334645
288	C	0.208138	0.910531	0.003138
289	C	0.21766	0.929581	0.043764
290	H	0.29728	0.588855	0.265419
291	N	0.235454	0.965172	0.296184
292	C	0.236135	0.966534	0.043083
293	N	0.245731	0.985731	0.081457
294	N	0.262908	0.520097	0.08142
295	H	0.211194	0.916648	0.073865
296	C	0.217627	0.92951	0.295783
297	H	0.211263	0.916782	0.265603
298	C	0.41196	0.70669	0.336275
299	C	0.430994	0.716209	0.295626
300	N	0.466655	0.734041	0.296103
301	C	0.485773	0.743602	0.334605
302	C	0.467913	0.734671	0.043005
303	C	0.430958	0.71619	0.043607
304	H	0.417988	0.709706	0.07368
305	H	0.418304	0.709866	0.265419
306	N	0.487059	0.744245	0.081421
307	C	0.133755	0.817598	0.336536
308	C	0.152489	0.854674	0.336563
309	C	0.189569	0.873402	0.336536
310	C	0.207912	0.854666	0.336563
311	C	0.18956	0.81759	0.336539
312	C	0.152482	0.799246	0.336566
313	H	0.234818	0.868116	0.336549
314	H	0.139026	0.772338	0.336549
315	H	0.13904	0.868132	0.336546
316	C	0.374833	0.688131	0.336268
317	C	0.356098	0.651052	0.336295
318	C	0.319019	0.632324	0.336268
319	C	0.300676	0.65106	0.336298
320	C	0.319029	0.688139	0.336268
321	C	0.356107	0.706483	0.336298
322	H	0.273769	0.63761	0.336308
323	H	0.369562	0.733388	0.336308
324	H	0.369548	0.637594	0.336305
325	C	0.300469	0.706706	0.669609
326	C	0.290951	0.716222	0.628961
327	N	0.273117	0.734049	0.62944
328	C	0.263556	0.743604	0.667943
329	C	0.272488	0.734676	0.376343
330	C	0.29097	0.716204	0.376943
331	H	0.297455	0.709719	0.407017
332	C	0.24503	0.762122	0.667983
333	C	0.208119	0.79902	0.336472
334	C	0.217644	0.789496	0.3771
335	H	0.297296	0.709876	0.598756
336	N	0.235444	0.771703	0.629521
337	C	0.236125	0.771023	0.37642
338	N	0.245725	0.761426	0.414795
339	N	0.262913	0.744247	0.414758
340	H	0.211179	0.795963	0.407202
341	C	0.21761	0.78953	0.629118
342	H	0.211247	0.795897	0.59894
343	C	0.300452	0.595198	0.669606
344	C	0.290935	0.576164	0.628961
345	N	0.273107	0.540501	0.629437
346	C	0.263551	0.521383	0.667939
347	C	0.272479	0.539244	0.376336
348	C	0.290954	0.5762	0.376939
349	H	0.297439	0.58917	0.407014
350	C	0.245036	0.98434	0.66798
351	C	0.208138	0.910531	0.336472
352	C	0.21766	0.929581	0.377097
353	H	0.29728	0.588855	0.598752
354	N	0.235454	0.965172	0.629517
355	C	0.236135	0.966534	0.376416
356	N	0.245731	0.985731	0.414792
357	N	0.262908	0.520097	0.414755
358	H	0.211194	0.916648	0.407198
359	C	0.217627	0.92951	0.629118
360	H	0.211263	0.916782	0.598937
361	C	0.41196	0.70669	0.669606
362	C	0.430994	0.716209	0.628961
363	N	0.466655	0.734041	0.629437
364	C	0.485773	0.743602	0.667939
365	C	0.467913	0.734671	0.376339
366	C	0.430958	0.71619	0.376939
367	H	0.417988	0.709706	0.407014
368	H	0.418304	0.709866	0.598752
369	N	0.487059	0.744245	0.414755
370	C	0.133755	0.817598	0.66987
371	C	0.152489	0.854674	0.669897
372	C	0.189569	0.873402	0.66987
373	C	0.207912	0.854666	0.669897
374	C	0.18956	0.81759	0.66987
375	C	0.152482	0.799246	0.669901
376	H	0.234818	0.868116	0.669881
377	H	0.139026	0.772338	0.669884
378	H	0.13904	0.868132	0.669881
379	C	0.374833	0.688131	0.669599
380	C	0.356098	0.651052	0.669629
381	C	0.319019	0.632324	0.669599
382	C	0.300676	0.65106	0.669632
383	C	0.319029	0.688139	0.669602
384	C	0.356107	0.706483	0.669632
385	H	0.273769	0.63761	0.669639
386	H	0.369562	0.733388	0.669639
387	H	0.369548	0.637594	0.669639
388	C	0.300469	0.706706	0.002942
389	C	0.290951	0.716222	0.962295
390	N	0.273117	0.734049	0.962771
391	C	0.263556	0.743604	0.001274
392	C	0.272488	0.734676	0.709674
393	C	0.29097	0.716204	0.710277
394	H	0.297455	0.709719	0.740348
395	C	0.24503	0.762122	0.001314
396	C	0.208119	0.79902	0.669807
397	C	0.217644	0.789496	0.710435
398	H	0.297296	0.709876	0.932087
399	N	0.235444	0.771703	0.962855
400	C	0.236125	0.771023	0.709754
401	N	0.245725	0.761426	0.748129
402	N	0.262913	0.744247	0.748089
403	H	0.211179	0.795963	0.740533
404	C	0.21761	0.78953	0.962453
405	H	0.211247	0.795897	0.932271
406	C	0.300452	0.595198	0.00294
407	C	0.290935	0.576164	0.962292
408	N	0.273107	0.540501	0.962768
409	C	0.263551	0.521383	0.001271
410	C	0.272479	0.539244	0.70967
411	C	0.290954	0.5762	0.710274
412	H	0.297439	0.58917	0.740345
413	C	0.245036	0.98434	0.001311
414	C	0.208138	0.910531	0.669803
415	C	0.21766	0.929581	0.710431
416	H	0.29728	0.588855	0.932087
417	N	0.235454	0.965172	0.962852
418	C	0.236135	0.966534	0.709751
419	N	0.245731	0.985731	0.748123
420	N	0.262908	0.520097	0.748086
421	H	0.211194	0.916648	0.740533
422	C	0.217627	0.92951	0.96245
423	H	0.211263	0.916782	0.932271
424	C	0.41196	0.70669	0.00294
425	C	0.430994	0.716209	0.962292
426	N	0.466655	0.734041	0.962771
427	C	0.485773	0.743602	0.001271
428	C	0.467913	0.734671	0.70967
429	C	0.430958	0.71619	0.710274
430	H	0.417988	0.709706	0.740348
431	H	0.418304	0.709866	0.932087
432	N	0.487059	0.744245	0.748086
433	C	0.633756	0.317598	0.003203
434	C	0.65249	0.354674	0.003229
435	C	0.689567	0.373402	0.003203
436	C	0.707911	0.354667	0.00323
437	C	0.689558	0.317587	0.003205
438	C	0.652481	0.299243	0.003233
439	H	0.734818	0.368116	0.003215
440	H	0.639025	0.272338	0.003216
441	H	0.639039	0.368132	0.003214
442	C	0.874834	0.18813	0.002934
443	C	0.856099	0.151051	0.002962
444	C	0.81902	0.132325	0.002934
445	C	0.800675	0.151059	0.002964
446	C	0.819028	0.188138	0.002934
447	C	0.856107	0.206482	0.002964
448	H	0.773768	0.137609	0.002973
449	H	0.869563	0.233388	0.002973
450	H	0.869548	0.137595	0.002972
451	C	0.800468	0.206705	0.336275
452	C	0.790951	0.216221	0.295628
453	N	0.773117	0.234049	0.296106
454	C	0.763557	0.243605	0.334608
455	C	0.772488	0.234677	0.043008
456	C	0.79097	0.216203	0.043609
457	H	0.797454	0.209717	0.073682
458	C	0.745031	0.262122	0.334649
459	C	0.708118	0.29902	0.00314
460	C	0.717645	0.289496	0.043767
461	H	0.797295	0.209876	0.26542
462	N	0.735444	0.271703	0.296187
463	C	0.736125	0.271024	0.043087
464	N	0.745727	0.261427	0.081461
465	N	0.762914	0.244248	0.081424
466	H	0.71118	0.295963	0.073868
467	C	0.71761	0.28953	0.295786
468	H	0.711246	0.295894	0.265605
469	C	0.800451	0.095197	0.336275
470	C	0.790934	0.076163	0.295626
471	N	0.773108	0.040502	0.296103
472	C	0.763551	0.021384	0.334605
473	C	0.772479	0.039244	0.043004
474	C	0.790952	0.076199	0.043606
475	H	0.797437	0.089169	0.07368
476	C	0.745034	0.48434	0.334645
477	C	0.708135	0.410528	0.003138
478	C	0.717662	0.429581	0.043764
479	H	0.797279	0.088853	0.265419
480	N	0.735455	0.465172	0.296184
481	C	0.736134	0.466534	0.043083
482	N	0.74573	0.485731	0.081457
483	N	0.762909	0.020098	0.08142
484	H	0.711195	0.416648	0.073865
485	C	0.717626	0.42951	0.295783
486	H	0.711262	0.416782	0.265603
487	C	0.911959	0.20669	0.336275
488	C	0.930994	0.216209	0.295626
489	N	0.966654	0.234042	0.296103
490	C	0.985772	0.243602	0.334605
491	C	0.967913	0.23467	0.043005
492	C	0.930957	0.21619	0.043607
493	H	0.917988	0.209705	0.07368
494	C	0.522818	0.262126	0.334646
495	C	0.596627	0.299036	0.003138
496	C	0.577578	0.289509	0.043765
497	H	0.918303	0.209864	0.265419
498	N	0.541985	0.271711	0.296185
499	C	0.540623	0.271031	0.043083
500	N	0.521427	0.26143	0.081458
501	N	0.98706	0.244244	0.081421
502	H	0.590509	0.295976	0.073865
503	C	0.577645	0.289544	0.295784
504	H	0.590375	0.295908	0.265603
505	C	0.633756	0.317598	0.336536
506	C	0.65249	0.354674	0.336563
507	C	0.689567	0.373402	0.336536
508	C	0.707911	0.354667	0.336563
509	C	0.689558	0.317587	0.336539
510	C	0.652481	0.299243	0.336566
511	H	0.734818	0.368116	0.336549
512	H	0.639025	0.272338	0.336549
513	H	0.639039	0.368132	0.336546
514	C	0.874834	0.18813	0.336268
515	C	0.856099	0.151051	0.336295
516	C	0.81902	0.132325	0.336268
517	C	0.800675	0.151059	0.336298
518	C	0.819028	0.188138	0.336268
519	C	0.856107	0.206482	0.336298
520	H	0.773768	0.137609	0.336308
521	H	0.869563	0.233388	0.336308
522	H	0.869548	0.137595	0.336305
523	C	0.800468	0.206705	0.669609
524	C	0.790951	0.216221	0.628961
525	N	0.773117	0.234049	0.62944
526	C	0.763557	0.243605	0.667943
527	C	0.772488	0.234677	0.376343
528	C	0.79097	0.216203	0.376943
529	H	0.797454	0.209717	0.407017
530	C	0.745031	0.262122	0.667983
531	C	0.708118	0.29902	0.336472
532	C	0.717645	0.289496	0.3771
533	H	0.797295	0.209876	0.598756
534	N	0.735444	0.271703	0.629521
535	C	0.736125	0.271024	0.37642
536	N	0.745727	0.261427	0.414795
537	N	0.762914	0.244248	0.414758
538	H	0.71118	0.295963	0.407202
539	C	0.71761	0.28953	0.629118
540	H	0.711246	0.295894	0.59894
541	C	0.800451	0.095197	0.669606
542	C	0.790934	0.076163	0.628961
543	N	0.773108	0.040502	0.629437
544	C	0.763551	0.021384	0.667939
545	C	0.772479	0.039244	0.376336
546	C	0.790952	0.076199	0.376939
547	H	0.797437	0.089169	0.407014
548	C	0.745034	0.48434	0.66798
549	C	0.708135	0.410528	0.336472
550	C	0.717662	0.429581	0.377097
551	H	0.797279	0.088853	0.598752
552	N	0.735455	0.465172	0.629517
553	C	0.736134	0.466534	0.376416
554	N	0.74573	0.485731	0.414792
555	N	0.762909	0.020098	0.414755
556	H	0.711195	0.416648	0.407198
557	C	0.717626	0.42951	0.629118
558	H	0.711262	0.416782	0.598937
559	C	0.911959	0.20669	0.669606
560	C	0.930994	0.216209	0.628961
561	N	0.966654	0.234042	0.629437
562	C	0.985772	0.243602	0.667939
563	C	0.967913	0.23467	0.376339
564	C	0.930957	0.21619	0.376939
565	H	0.917988	0.209705	0.407014
566	C	0.522818	0.262126	0.66798
567	C	0.596627	0.299036	0.336472
568	C	0.577578	0.289509	0.377097
569	H	0.918303	0.209864	0.598752
570	N	0.541985	0.271711	0.629517
571	C	0.540623	0.271031	0.376416
572	N	0.521427	0.26143	0.414792
573	N	0.98706	0.244244	0.414755
574	H	0.590509	0.295976	0.407198
575	C	0.577645	0.289544	0.629118
576	H	0.590375	0.295908	0.598937
577	C	0.633756	0.317598	0.66987
578	C	0.65249	0.354674	0.669897
579	C	0.689567	0.373402	0.66987
580	C	0.707911	0.354667	0.669897
581	C	0.689558	0.317587	0.66987
582	C	0.652481	0.299243	0.669901
583	H	0.734818	0.368116	0.669881
584	H	0.639025	0.272338	0.669884
585	H	0.639039	0.368132	0.669881
586	C	0.874834	0.18813	0.669599
587	C	0.856099	0.151051	0.669629
588	C	0.81902	0.132325	0.669599
589	C	0.800675	0.151059	0.669632
590	C	0.819028	0.188138	0.669602
591	C	0.856107	0.206482	0.669632
592	H	0.773768	0.137609	0.669639
593	H	0.869563	0.233388	0.669639
594	H	0.869548	0.137595	0.669639
595	C	0.800468	0.206705	0.002942
596	C	0.790951	0.216221	0.962295
597	N	0.773117	0.234049	0.962771
598	C	0.763557	0.243605	0.001274
599	C	0.772488	0.234677	0.709674
600	C	0.79097	0.216203	0.710277
601	H	0.797454	0.209717	0.740348
602	C	0.745031	0.262122	0.001314
603	C	0.708118	0.29902	0.669807
604	C	0.717645	0.289496	0.710435
605	H	0.797295	0.209876	0.932087
606	N	0.735444	0.271703	0.962855
607	C	0.736125	0.271024	0.709754
608	N	0.745727	0.261427	0.748129
609	N	0.762914	0.244248	0.748089
610	H	0.71118	0.295963	0.740533
611	C	0.71761	0.28953	0.962453
612	H	0.711246	0.295894	0.932271
613	C	0.800451	0.095197	0.00294
614	C	0.790934	0.076163	0.962292
615	N	0.773108	0.040502	0.962768
616	C	0.763551	0.021384	0.001271
617	C	0.772479	0.039244	0.70967
618	C	0.790952	0.076199	0.710274
619	H	0.797437	0.089169	0.740345
620	C	0.745034	0.48434	0.001311
621	C	0.708135	0.410528	0.669803
622	C	0.717662	0.429581	0.710431
623	H	0.797279	0.088853	0.932087
624	N	0.735455	0.465172	0.962852
625	C	0.736134	0.466534	0.709751
626	N	0.74573	0.485731	0.748123
627	N	0.762909	0.020098	0.748086
628	H	0.711195	0.416648	0.740533
629	C	0.717626	0.42951	0.96245
630	H	0.711262	0.416782	0.932271
631	C	0.911959	0.20669	0.00294
632	C	0.930994	0.216209	0.962292
633	N	0.966654	0.234042	0.962771
634	C	0.985772	0.243602	0.001271
635	C	0.967913	0.23467	0.70967
636	C	0.930957	0.21619	0.710274
637	H	0.917988	0.209705	0.740348
638	C	0.522818	0.262126	0.001311
639	C	0.596627	0.299036	0.669803
640	C	0.577578	0.289509	0.710431
641	H	0.918303	0.209864	0.932087
642	N	0.541985	0.271711	0.962852
643	C	0.540623	0.271031	0.709751
644	N	0.521427	0.26143	0.748126
645	N	0.98706	0.244244	0.748086
646	H	0.590509	0.295976	0.740533
647	C	0.577645	0.289544	0.96245
648	H	0.590375	0.295908	0.932271
649	C	0.633755	0.817598	0.003203
650	C	0.652489	0.854674	0.003229
651	C	0.689567	0.873402	0.003203
652	C	0.707911	0.854666	0.00323
653	C	0.68956	0.81759	0.003205
654	C	0.65248	0.799246	0.003233
655	H	0.734818	0.868116	0.003215
656	H	0.639025	0.772338	0.003216
657	H	0.639039	0.868132	0.003214
658	C	0.874832	0.688131	0.002934
659	C	0.856097	0.651052	0.002962
660	C	0.819019	0.632324	0.002934
661	C	0.800675	0.65106	0.002964
662	C	0.819029	0.688139	0.002934
663	C	0.856106	0.706483	0.002964
664	H	0.773769	0.63761	0.002973
665	H	0.869562	0.733388	0.002973
666	H	0.869548	0.637594	0.002972
667	C	0.800469	0.706706	0.336275
668	C	0.790949	0.716222	0.295628
669	N	0.773117	0.734049	0.296106
670	C	0.763556	0.743604	0.334608
671	C	0.772488	0.734676	0.043008
672	C	0.79097	0.716204	0.043609
673	H	0.797455	0.709719	0.073682
674	C	0.745028	0.762122	0.334649
675	C	0.708118	0.79902	0.00314
676	C	0.717645	0.789496	0.043767
677	H	0.797295	0.709876	0.26542
678	N	0.735444	0.771703	0.296187
679	C	0.736125	0.771023	0.043087
680	N	0.745724	0.761426	0.081461
681	N	0.762912	0.744247	0.081424
682	H	0.711178	0.795963	0.073868
683	C	0.71761	0.78953	0.295786
684	H	0.711245	0.795897	0.265605
685	C	0.800452	0.595198	0.336275
686	C	0.790935	0.576164	0.295626
687	N	0.773108	0.540501	0.296103
688	C	0.763551	0.521383	0.334605
689	C	0.77248	0.539244	0.043004
690	C	0.790953	0.5762	0.043606
691	H	0.797438	0.58917	0.07368
692	C	0.745034	0.98434	0.334645
693	C	0.708137	0.910531	0.003138
694	C	0.717662	0.929581	0.043764
695	H	0.79728	0.588855	0.265419
696	N	0.735453	0.965172	0.296184
697	C	0.736134	0.966534	0.043083
698	N	0.74573	0.985731	0.081457
699	N	0.762908	0.520097	0.08142
700	H	0.711195	0.916648	0.073865
701	C	0.717626	0.92951	0.295783
702	H	0.711262	0.916782	0.265603
703	C	0.91196	0.70669	0.336275
704	C	0.930994	0.716209	0.295626
705	N	0.966653	0.734041	0.296103
706	C	0.985772	0.743602	0.334605
707	C	0.967914	0.734671	0.043005
708	C	0.930957	0.71619	0.043607
709	H	0.917988	0.709706	0.07368
710	C	0.522817	0.762127	0.334646
711	C	0.596627	0.799036	0.003138
712	C	0.577577	0.789509	0.043765
713	H	0.918304	0.709866	0.265419
714	N	0.541985	0.771711	0.296185
715	C	0.540623	0.771031	0.043083
716	N	0.521427	0.761432	0.081458
717	N	0.987058	0.744245	0.081421
718	H	0.590508	0.795976	0.073865
719	C	0.577646	0.789543	0.295784
720	H	0.590375	0.795907	0.265603
721	C	0.633755	0.817598	0.336536
722	C	0.652489	0.854674	0.336563
723	C	0.689567	0.873402	0.336536
724	C	0.707911	0.854666	0.336563
725	C	0.68956	0.81759	0.336539
726	C	0.65248	0.799246	0.336566
727	H	0.734818	0.868116	0.336549
728	H	0.639025	0.772338	0.336549
729	H	0.639039	0.868132	0.336546
730	C	0.874832	0.688131	0.336268
731	C	0.856097	0.651052	0.336295
732	C	0.819019	0.632324	0.336268
733	C	0.800675	0.65106	0.336298
734	C	0.819029	0.688139	0.336268
735	C	0.856106	0.706483	0.336298
736	H	0.773769	0.63761	0.336308
737	H	0.869562	0.733388	0.336308
738	H	0.869548	0.637594	0.336305
739	C	0.800469	0.706706	0.669609
740	C	0.790949	0.716222	0.628961
741	N	0.773117	0.734049	0.62944
742	C	0.763556	0.743604	0.667943
743	C	0.772488	0.734676	0.376343
744	C	0.79097	0.716204	0.376943
745	H	0.797455	0.709719	0.407017
746	C	0.745028	0.762122	0.667983
747	C	0.708118	0.79902	0.336472
748	C	0.717645	0.789496	0.3771
749	H	0.797295	0.709876	0.598756
750	N	0.735444	0.771703	0.629521
751	C	0.736125	0.771023	0.37642
752	N	0.745724	0.761426	0.414795
753	N	0.762912	0.744247	0.414758
754	H	0.711178	0.795963	0.407202
755	C	0.71761	0.78953	0.629118
756	H	0.711245	0.795897	0.59894
757	C	0.800452	0.595198	0.669606
758	C	0.790935	0.576164	0.628961
759	N	0.773108	0.540501	0.629437
760	C	0.763551	0.521383	0.667939
761	C	0.77248	0.539244	0.376336
762	C	0.790953	0.5762	0.376939
763	H	0.797438	0.58917	0.407014
764	C	0.745034	0.98434	0.66798
765	C	0.708137	0.910531	0.336472
766	C	0.717662	0.929581	0.377097
767	H	0.79728	0.588855	0.598752
768	N	0.735453	0.965172	0.629517
769	C	0.736134	0.966534	0.376416
770	N	0.74573	0.985731	0.414792
771	N	0.762908	0.520097	0.414755
772	H	0.711195	0.916648	0.407198
773	C	0.717626	0.92951	0.629118
774	H	0.711262	0.916782	0.598937
775	C	0.91196	0.70669	0.669606
776	C	0.930994	0.716209	0.628961
777	N	0.966653	0.734041	0.629437
778	C	0.985772	0.743602	0.667939
779	C	0.967914	0.734671	0.376339
780	C	0.930957	0.71619	0.376939
781	H	0.917988	0.709706	0.407014
782	C	0.522817	0.762127	0.66798
783	C	0.596627	0.799036	0.336472
784	C	0.577577	0.789509	0.377097
785	H	0.918304	0.709866	0.598752
786	N	0.541985	0.771711	0.629517
787	C	0.540623	0.771031	0.376416
788	N	0.521427	0.761432	0.414792
789	N	0.987058	0.744245	0.414755
790	H	0.590508	0.795976	0.407198
791	C	0.577646	0.789543	0.629118
792	H	0.590375	0.795907	0.598937
793	C	0.633755	0.817598	0.66987
794	C	0.652489	0.854674	0.669897
795	C	0.689567	0.873402	0.66987
796	C	0.707911	0.854666	0.669897
797	C	0.68956	0.81759	0.66987
798	C	0.65248	0.799246	0.669901
799	H	0.734818	0.868116	0.669881
800	H	0.639025	0.772338	0.669884
801	H	0.639039	0.868132	0.669881
802	C	0.874832	0.688131	0.669599
803	C	0.856097	0.651052	0.669629
804	C	0.819019	0.632324	0.669599
805	C	0.800675	0.65106	0.669632
806	C	0.819029	0.688139	0.669602
807	C	0.856106	0.706483	0.669632
808	H	0.773769	0.63761	0.669639
809	H	0.869562	0.733388	0.669639
810	H	0.869548	0.637594	0.669639
811	C	0.800469	0.706706	0.002942
812	C	0.790949	0.716222	0.962295
813	N	0.773117	0.734049	0.962771
814	C	0.763556	0.743604	0.001274
815	C	0.772488	0.734676	0.709674
816	C	0.79097	0.716204	0.710277
817	H	0.797455	0.709719	0.740348
818	C	0.745028	0.762122	0.001314
819	C	0.708118	0.79902	0.669807
820	C	0.717645	0.789496	0.710435
821	H	0.797295	0.709876	0.932087
822	N	0.735444	0.771703	0.962855
823	C	0.736125	0.771023	0.709754
824	N	0.745724	0.761426	0.748129
825	N	0.762912	0.744247	0.748089
826	H	0.711178	0.795963	0.740533
827	C	0.71761	0.78953	0.962453
828	H	0.711245	0.795897	0.932271
829	C	0.800452	0.595198	0.00294
830	C	0.790935	0.576164	0.962292
831	N	0.773108	0.540501	0.962768
832	C	0.763551	0.521383	0.001271
833	C	0.77248	0.539244	0.70967
834	C	0.790953	0.5762	0.710274
835	H	0.797438	0.58917	0.740345
836	C	0.745034	0.98434	0.001311
837	C	0.708137	0.910531	0.669803
838	C	0.717662	0.929581	0.710431
839	H	0.79728	0.588855	0.932087
840	N	0.735453	0.965172	0.962852
841	C	0.736134	0.966534	0.709751
842	N	0.74573	0.985731	0.748123
843	N	0.762908	0.520097	0.748086
844	H	0.711195	0.916648	0.740533
845	C	0.717626	0.92951	0.96245
846	H	0.711262	0.916782	0.932271
847	C	0.91196	0.70669	0.00294
848	C	0.930994	0.716209	0.962292
849	N	0.966653	0.734041	0.962771
850	C	0.985772	0.743602	0.001271
851	C	0.967914	0.734671	0.70967
852	C	0.930957	0.71619	0.710274
853	H	0.917988	0.709706	0.740348
854	C	0.522817	0.762127	0.001311
855	C	0.596627	0.799036	0.669803
856	C	0.577577	0.789509	0.710431
857	H	0.918304	0.709866	0.932087
858	N	0.541985	0.771711	0.962852
859	C	0.540623	0.771031	0.709751
860	N	0.521427	0.761432	0.748126
861	N	0.987058	0.744245	0.748086
862	H	0.590508	0.795976	0.740533
863	C	0.577646	0.789543	0.96245
864	H	0.590375	0.795907	0.932271
