data_C396H252N180O108_2018-02-15_10:32:47
#******************************************
#
# CIF file created by Zeo++
# Zeo++ is an open source package to
# analyze microporous materials
#
#*******************************************

_cell_length_a		43.5519   
_cell_length_b		43.552   
_cell_length_c		30.0882   
_cell_angle_alpha		90   
_cell_angle_beta		90   
_cell_angle_gamma		120   

_symmetry_space_group_name_H-M		'P1'
_symmetry_Int_Tables_number		1
_symmetry_cell_setting		Monoclinic

loop_
_symmetry_equiv_pos_as_xyz
'+x,+y,+z'

loop_
_atom_site_label
_atom_site_type_symbol
_atom_site_fract_x
_atom_site_fract_y
_atom_site_fract_z
1	C	0.176231	0.369161	0.964788
2	C	0.139723	0.343253	0.964303
3	C	0.127159	0.30633	0.964672
4	C	0.153074	0.295738	0.96425
5	C	0.189997	0.320096	0.29804
6	C	0.200598	0.356607	0.964276
7	H	0.144558	0.269366	0.966723
8	H	0.226963	0.374456	0.966895
9	H	0.121866	0.351766	0.966816
10	C	0.187121	0.405633	0.97096
11	C	0.215584	0.30921	0.304194
12	C	0.090684	0.280735	0.970781
13	O	0.249644	0.334808	0.978737
14	O	0.16152	0.414082	0.978884
15	O	0.082221	0.246672	0.978631
16	C	0.319519	0.127961	0.055223
17	C	0.355987	0.153926	0.055612
18	C	0.368405	0.190836	0.055237
19	C	0.342428	0.201327	0.055566
20	C	0.305517	0.17684	0.388578
21	C	0.295023	0.140372	0.055598
22	H	0.350887	0.22769	0.052797
23	H	0.268657	0.122471	0.052842
24	H	0.373893	0.145469	0.052828
25	C	0.308632	0.091495	0.049042
26	C	0.279939	0.18772	0.38234
27	C	0.404861	0.216415	0.048988
28	O	0.24623	0.162393	0.038936
29	O	0.333954	0.083115	0.038925
30	O	0.413226	0.250105	0.038828
31	C	0.268798	0.236274	0.031541
32	N	0.239576	0.215399	0.339811
33	C	0.219359	0.226533	0.318983
34	C	0.228647	0.262418	0.322565
35	N	0.257785	0.283285	0.014211
36	C	0.27855	0.272645	0.035007
37	H	0.197695	0.20876	0.301243
38	C	0.308258	0.299315	0.058031
39	O	0.304154	0.32359	0.081392
40	N	0.341706	0.306126	0.0506
41	H	0.346693	0.292687	0.0288
42	H	0.361661	0.326897	0.063756
43	N	0.287441	0.222155	0.050685
44	H	0.308251	0.238303	0.067487
45	N	0.208333	0.274825	0.304169
46	H	0.186421	0.257167	0.290276
47	C	0.260074	0.031796	0.03159
48	N	0.280939	0.023445	0.339851
49	C	0.2698	0.492089	0.319032
50	C	0.233917	0.465491	0.322635
51	N	0.213059	0.473766	0.01429
52	C	0.223703	0.005176	0.035077
53	H	0.287567	0.488195	0.301283
54	C	0.197041	0.008218	0.058116
55	O	0.172776	0.979841	0.081494
56	N	0.190223	0.03485	0.050685
57	H	0.203653	0.053271	0.028876
58	H	0.169458	0.034037	0.063854
59	N	0.274198	0.064564	0.050722
60	H	0.258053	0.069227	0.067531
61	N	0.221504	0.432769	0.304242
62	H	0.239156	0.428514	0.290332
63	C	0.46455	0.227546	0.031486
64	N	0.472893	0.25676	0.339742
65	C	0.004237	0.276967	0.3189
66	C	0.030832	0.267677	0.32248
67	N	0.022565	0.238547	0.014137
68	C	0.491168	0.21779	0.034947
69	H	0.008126	0.298628	0.301154
70	C	0.488132	0.188087	0.057982
71	O	0.516517	0.192194	0.081327
72	N	0.461486	0.154639	0.050578
73	H	0.443049	0.149647	0.028789
74	H	0.462301	0.134688	0.06374
75	N	0.431795	0.208914	0.050654
76	H	0.427144	0.188116	0.067478
77	N	0.063553	0.287989	0.304081
78	H	0.067812	0.309904	0.29019
79	C	0.176231	0.369161	0.298122
80	C	0.139723	0.343253	0.297638
81	C	0.127159	0.30633	0.298007
82	C	0.153074	0.295738	0.297586
83	C	0.189997	0.320096	0.631371
84	C	0.200598	0.356607	0.297609
85	H	0.144558	0.269366	0.300057
86	H	0.226963	0.374456	0.300231
87	H	0.121866	0.351766	0.300149
88	C	0.187121	0.405633	0.304293
89	C	0.215584	0.30921	0.637527
90	C	0.090684	0.280735	0.304116
91	O	0.249644	0.334808	0.31207
92	O	0.16152	0.414082	0.312217
93	O	0.082221	0.246672	0.311964
94	C	0.319519	0.127961	0.388555
95	C	0.355987	0.153926	0.388944
96	C	0.368405	0.190836	0.388568
97	C	0.342428	0.201327	0.388901
98	C	0.305517	0.17684	0.721912
99	C	0.295023	0.140372	0.38893
100	H	0.350887	0.22769	0.386129
101	H	0.268657	0.122471	0.386175
102	H	0.373893	0.145469	0.386162
103	C	0.308632	0.091495	0.382373
104	C	0.279939	0.18772	0.715674
105	C	0.404861	0.216415	0.38232
106	O	0.24623	0.162393	0.372269
107	O	0.333954	0.083115	0.372259
108	O	0.413226	0.250105	0.37216
109	C	0.268798	0.236274	0.364874
110	N	0.239576	0.215399	0.673142
111	C	0.219359	0.226533	0.652317
112	C	0.228647	0.262418	0.655899
113	N	0.257785	0.283285	0.347545
114	C	0.27855	0.272645	0.368341
115	H	0.197695	0.20876	0.634575
116	C	0.308258	0.299315	0.391363
117	O	0.304154	0.32359	0.414725
118	N	0.341706	0.306126	0.383932
119	H	0.346693	0.292687	0.362133
120	H	0.361661	0.326897	0.39709
121	N	0.287441	0.222155	0.384018
122	H	0.308251	0.238303	0.400819
123	N	0.208333	0.274825	0.6375
124	H	0.186421	0.257167	0.623608
125	C	0.260074	0.031796	0.364924
126	N	0.280939	0.023445	0.673182
127	C	0.2698	0.492089	0.652363
128	C	0.233917	0.465491	0.655969
129	N	0.213059	0.473766	0.347622
130	C	0.223703	0.005176	0.368411
131	H	0.287567	0.488195	0.634615
132	C	0.197041	0.008218	0.39145
133	O	0.172776	0.979841	0.414828
134	N	0.190223	0.03485	0.384018
135	H	0.203653	0.053271	0.362209
136	H	0.169458	0.034037	0.397186
137	N	0.274198	0.064564	0.384055
138	H	0.258053	0.069227	0.400862
139	N	0.221504	0.432769	0.637576
140	H	0.239156	0.428514	0.623664
141	C	0.46455	0.227546	0.364818
142	N	0.472893	0.25676	0.673076
143	C	0.004237	0.276967	0.652233
144	C	0.030832	0.267677	0.655813
145	N	0.022565	0.238547	0.347469
146	C	0.491168	0.21779	0.368281
147	H	0.008126	0.298628	0.634486
148	C	0.488132	0.188087	0.391313
149	O	0.516517	0.192194	0.414662
150	N	0.461486	0.154639	0.383912
151	H	0.443049	0.149647	0.362123
152	H	0.462301	0.134688	0.397073
153	N	0.431795	0.208914	0.383985
154	H	0.427144	0.188116	0.400812
155	N	0.063553	0.287989	0.637414
156	H	0.067812	0.309904	0.623521
157	C	0.176231	0.369161	0.631454
158	C	0.139723	0.343253	0.630973
159	C	0.127159	0.30633	0.631338
160	C	0.153074	0.295738	0.630919
161	C	0.189997	0.320096	0.964705
162	C	0.200598	0.356607	0.630943
163	H	0.144558	0.269366	0.633389
164	H	0.226963	0.374456	0.633565
165	H	0.121866	0.351766	0.633482
166	C	0.187121	0.405633	0.637626
167	C	0.215584	0.30921	0.97086
168	C	0.090684	0.280735	0.63745
169	O	0.249644	0.334808	0.645403
170	O	0.16152	0.414082	0.64555
171	O	0.082221	0.246672	0.645297
172	C	0.319519	0.127961	0.721889
173	C	0.355987	0.153926	0.722278
174	C	0.368405	0.190836	0.721902
175	C	0.342428	0.201327	0.722231
176	C	0.305517	0.17684	0.055246
177	C	0.295023	0.140372	0.722264
178	H	0.350887	0.22769	0.719463
179	H	0.268657	0.122471	0.719509
180	H	0.373893	0.145469	0.719496
181	C	0.308632	0.091495	0.715707
182	C	0.279939	0.18772	0.049006
183	C	0.404861	0.216415	0.715654
184	O	0.24623	0.162393	0.705603
185	O	0.333954	0.083115	0.70559
186	O	0.413226	0.250105	0.705494
187	C	0.268798	0.236274	0.698205
188	N	0.239576	0.215399	0.006478
189	C	0.219359	0.226533	0.98565
190	C	0.228647	0.262418	0.98923
191	N	0.257785	0.283285	0.680876
192	C	0.27855	0.272645	0.701671
193	H	0.197695	0.20876	0.967909
194	C	0.308258	0.299315	0.724697
195	O	0.304154	0.32359	0.748058
196	N	0.341706	0.306126	0.717266
197	H	0.346693	0.292687	0.695466
198	H	0.361661	0.326897	0.73042
199	N	0.287441	0.222155	0.717352
200	H	0.308251	0.238303	0.734153
201	N	0.208333	0.274825	0.970834
202	H	0.186421	0.257167	0.956941
203	C	0.260074	0.031796	0.698255
204	N	0.280939	0.023445	0.006518
205	C	0.2698	0.492089	0.985697
206	C	0.233917	0.465491	0.9893
207	N	0.213059	0.473766	0.680956
208	C	0.223703	0.005176	0.701741
209	H	0.287567	0.488195	0.967949
210	C	0.197041	0.008218	0.72478
211	O	0.172776	0.979841	0.748158
212	N	0.190223	0.03485	0.717352
213	H	0.203653	0.053271	0.695543
214	H	0.169458	0.034037	0.73052
215	N	0.274198	0.064564	0.717389
216	H	0.258053	0.069227	0.734196
217	N	0.221504	0.432769	0.970907
218	H	0.239156	0.428514	0.956998
219	C	0.46455	0.227546	0.698152
220	N	0.472893	0.25676	0.00641
221	C	0.004237	0.276967	0.985564
222	C	0.030832	0.267677	0.989147
223	N	0.022565	0.238547	0.680803
224	C	0.491168	0.21779	0.701612
225	H	0.008126	0.298628	0.967819
226	C	0.488132	0.188087	0.724647
227	O	0.516517	0.192194	0.747992
228	N	0.461486	0.154639	0.717246
229	H	0.443049	0.149647	0.695453
230	H	0.462301	0.134688	0.730407
231	N	0.431795	0.208914	0.717319
232	H	0.427144	0.188116	0.734143
233	N	0.063553	0.287989	0.970747
234	H	0.067812	0.309904	0.956855
235	C	0.176232	0.86916	0.964788
236	C	0.139724	0.843251	0.964303
237	C	0.12716	0.806331	0.964672
238	C	0.153074	0.795737	0.96425
239	C	0.189997	0.820094	0.29804
240	C	0.200599	0.856608	0.964276
241	H	0.144558	0.769364	0.966723
242	H	0.226962	0.874454	0.966895
243	H	0.121867	0.851764	0.966816
244	C	0.18712	0.905631	0.97096
245	C	0.215585	0.809211	0.304194
246	C	0.090685	0.780736	0.970781
247	O	0.249645	0.834809	0.978737
248	O	0.161522	0.914083	0.978884
249	O	0.082222	0.746671	0.978631
250	C	0.31952	0.627961	0.055223
251	C	0.355987	0.653926	0.055612
252	C	0.368404	0.690835	0.055237
253	C	0.342428	0.701326	0.055566
254	C	0.305516	0.676838	0.388578
255	C	0.295024	0.640372	0.055598
256	H	0.350887	0.727691	0.052797
257	H	0.268657	0.622471	0.052842
258	H	0.373892	0.645468	0.052828
259	C	0.308633	0.591495	0.049042
260	C	0.279939	0.687719	0.38234
261	C	0.404861	0.716415	0.048988
262	O	0.24623	0.662391	0.038937
263	O	0.333953	0.583114	0.038925
264	O	0.413228	0.750105	0.038828
265	C	0.268798	0.736273	0.031541
266	N	0.239576	0.715399	0.339811
267	C	0.219359	0.726532	0.318983
268	C	0.228647	0.762418	0.322565
269	N	0.257785	0.783283	0.014211
270	C	0.278551	0.772646	0.035007
271	H	0.197696	0.70876	0.301243
272	C	0.308258	0.799313	0.058031
273	O	0.304154	0.823589	0.081392
274	N	0.341706	0.806125	0.0506
275	H	0.346693	0.792688	0.0288
276	H	0.361661	0.826895	0.063756
277	N	0.287442	0.722155	0.050685
278	H	0.308252	0.738304	0.067487
279	N	0.208334	0.774826	0.304169
280	H	0.186421	0.757165	0.290276
281	C	0.260073	0.531796	0.03159
282	N	0.28094	0.523444	0.339851
283	C	0.2698	0.992088	0.319032
284	C	0.233916	0.96549	0.322635
285	N	0.21306	0.973767	0.01429
286	C	0.223703	0.505176	0.035077
287	H	0.287568	0.988196	0.301283
288	C	0.197041	0.508217	0.058116
289	O	0.172777	0.479843	0.081494
290	N	0.190223	0.53485	0.050685
291	H	0.203653	0.553271	0.028876
292	H	0.169458	0.534036	0.063854
293	N	0.274197	0.564563	0.050722
294	H	0.258052	0.569227	0.067531
295	N	0.221504	0.932767	0.304242
296	H	0.239157	0.928515	0.290332
297	C	0.46455	0.727545	0.031486
298	N	0.472893	0.75676	0.339742
299	C	0.004238	0.776968	0.3189
300	C	0.030833	0.767678	0.32248
301	N	0.022565	0.738545	0.014137
302	C	0.491167	0.717788	0.034947
303	H	0.008126	0.798627	0.301154
304	C	0.488131	0.688085	0.057982
305	O	0.516518	0.692192	0.081327
306	N	0.461487	0.654639	0.050578
307	H	0.443049	0.649647	0.028789
308	H	0.462301	0.634688	0.06374
309	N	0.431795	0.708914	0.050654
310	H	0.427143	0.688117	0.067478
311	N	0.063552	0.787987	0.30408
312	H	0.067812	0.809903	0.29019
313	C	0.176232	0.86916	0.298122
314	C	0.139724	0.843251	0.297638
315	C	0.12716	0.806331	0.298007
316	C	0.153074	0.795737	0.297586
317	C	0.189997	0.820094	0.631371
318	C	0.200599	0.856608	0.297609
319	H	0.144558	0.769364	0.300057
320	H	0.226962	0.874454	0.300231
321	H	0.121867	0.851764	0.300149
322	C	0.18712	0.905631	0.304293
323	C	0.215585	0.809211	0.637527
324	C	0.090685	0.780736	0.304116
325	O	0.249645	0.834809	0.31207
326	O	0.161522	0.914083	0.312217
327	O	0.082222	0.746671	0.311964
328	C	0.31952	0.627961	0.388555
329	C	0.355987	0.653926	0.388944
330	C	0.368404	0.690835	0.388568
331	C	0.342428	0.701326	0.388901
332	C	0.305516	0.676838	0.721912
333	C	0.295024	0.640372	0.38893
334	H	0.350887	0.727691	0.386129
335	H	0.268657	0.622471	0.386175
336	H	0.373892	0.645468	0.386162
337	C	0.308633	0.591495	0.382373
338	C	0.279939	0.687719	0.715674
339	C	0.404861	0.716415	0.38232
340	O	0.24623	0.662391	0.372269
341	O	0.333953	0.583114	0.372259
342	O	0.413228	0.750105	0.37216
343	C	0.268798	0.736273	0.364874
344	N	0.239576	0.715399	0.673142
345	C	0.219359	0.726532	0.652317
346	C	0.228647	0.762418	0.655899
347	N	0.257785	0.783283	0.347545
348	C	0.278551	0.772646	0.368341
349	H	0.197696	0.70876	0.634575
350	C	0.308258	0.799313	0.391363
351	O	0.304154	0.823589	0.414725
352	N	0.341706	0.806125	0.383932
353	H	0.346693	0.792688	0.362133
354	H	0.361661	0.826895	0.39709
355	N	0.287442	0.722155	0.384018
356	H	0.308252	0.738304	0.400819
357	N	0.208334	0.774826	0.6375
358	H	0.186421	0.757165	0.623608
359	C	0.260073	0.531796	0.364924
360	N	0.28094	0.523444	0.673185
361	C	0.2698	0.992088	0.652363
362	C	0.233916	0.96549	0.655969
363	N	0.21306	0.973767	0.347622
364	C	0.223703	0.505176	0.368411
365	H	0.287568	0.988196	0.634615
366	C	0.197041	0.508217	0.39145
367	O	0.172777	0.479843	0.414828
368	N	0.190223	0.53485	0.384018
369	H	0.203653	0.553271	0.362209
370	H	0.169458	0.534036	0.397186
371	N	0.274197	0.564563	0.384055
372	H	0.258052	0.569227	0.400862
373	N	0.221504	0.932767	0.637576
374	H	0.239157	0.928515	0.623664
375	C	0.46455	0.727545	0.364818
376	N	0.472893	0.75676	0.673076
377	C	0.004238	0.776968	0.652233
378	C	0.030833	0.767678	0.655813
379	N	0.022565	0.738545	0.347469
380	C	0.491167	0.717788	0.368281
381	H	0.008126	0.798627	0.634486
382	C	0.488131	0.688085	0.391313
383	O	0.516518	0.692192	0.414662
384	N	0.461487	0.654639	0.383912
385	H	0.443049	0.649647	0.362123
386	H	0.462301	0.634688	0.397073
387	N	0.431795	0.708914	0.383985
388	H	0.427143	0.688117	0.400812
389	N	0.063552	0.787987	0.637414
390	H	0.067812	0.809903	0.623521
391	C	0.176232	0.86916	0.631454
392	C	0.139724	0.843251	0.630973
393	C	0.12716	0.806331	0.631338
394	C	0.153074	0.795737	0.630919
395	C	0.189997	0.820094	0.964705
396	C	0.200599	0.856608	0.630943
397	H	0.144558	0.769364	0.633389
398	H	0.226962	0.874454	0.633565
399	H	0.121867	0.851764	0.633482
400	C	0.18712	0.905631	0.637626
401	C	0.215585	0.809211	0.97086
402	C	0.090685	0.780736	0.63745
403	O	0.249645	0.834809	0.645403
404	O	0.161522	0.914083	0.64555
405	O	0.082222	0.746671	0.645297
406	C	0.31952	0.627961	0.721889
407	C	0.355987	0.653926	0.722278
408	C	0.368404	0.690835	0.721902
409	C	0.342428	0.701326	0.722231
410	C	0.305516	0.676838	0.055246
411	C	0.295024	0.640372	0.722264
412	H	0.350887	0.727691	0.719463
413	H	0.268657	0.622471	0.719509
414	H	0.373892	0.645468	0.719496
415	C	0.308633	0.591495	0.715707
416	C	0.279939	0.687719	0.049006
417	C	0.404861	0.716415	0.715654
418	O	0.24623	0.662391	0.705603
419	O	0.333953	0.583114	0.70559
420	O	0.413228	0.750105	0.705494
421	C	0.268798	0.736273	0.698205
422	N	0.239576	0.715399	0.006478
423	C	0.219359	0.726532	0.98565
424	C	0.228647	0.762418	0.98923
425	N	0.257785	0.783283	0.680876
426	C	0.278551	0.772646	0.701671
427	H	0.197696	0.70876	0.967909
428	C	0.308258	0.799313	0.724697
429	O	0.304154	0.823589	0.748058
430	N	0.341706	0.806125	0.717266
431	H	0.346693	0.792688	0.695466
432	H	0.361661	0.826895	0.73042
433	N	0.287442	0.722155	0.717352
434	H	0.308252	0.738304	0.734153
435	N	0.208334	0.774826	0.970834
436	H	0.186421	0.757165	0.956941
437	C	0.260073	0.531796	0.698255
438	N	0.28094	0.523444	0.006518
439	C	0.2698	0.992088	0.985697
440	C	0.233916	0.96549	0.9893
441	N	0.21306	0.973767	0.680956
442	C	0.223703	0.505176	0.701741
443	H	0.287568	0.988196	0.967949
444	C	0.197041	0.508217	0.72478
445	O	0.172777	0.479843	0.748158
446	N	0.190223	0.53485	0.717352
447	H	0.203653	0.553271	0.695543
448	H	0.169458	0.534036	0.73052
449	N	0.274197	0.564563	0.717389
450	H	0.258052	0.569227	0.734196
451	N	0.221504	0.932767	0.970907
452	H	0.239157	0.928515	0.956998
453	C	0.46455	0.727545	0.698152
454	N	0.472893	0.75676	0.00641
455	C	0.004238	0.776968	0.985564
456	C	0.030833	0.767678	0.989147
457	N	0.022565	0.738545	0.680803
458	C	0.491167	0.717788	0.701612
459	H	0.008126	0.798627	0.967819
460	C	0.488131	0.688085	0.724647
461	O	0.516518	0.692192	0.747992
462	N	0.461487	0.654639	0.717246
463	H	0.443049	0.649647	0.695453
464	H	0.462301	0.634688	0.730407
465	N	0.431795	0.708914	0.717319
466	H	0.427143	0.688117	0.734143
467	N	0.063552	0.787987	0.970747
468	H	0.067812	0.809903	0.956855
469	C	0.676231	0.369161	0.964788
470	C	0.639723	0.343253	0.964303
471	C	0.627159	0.30633	0.964672
472	C	0.653074	0.295738	0.96425
473	C	0.689998	0.320096	0.29804
474	C	0.700598	0.356607	0.964276
475	H	0.64456	0.269366	0.966723
476	H	0.726964	0.374456	0.966895
477	H	0.621866	0.351766	0.966816
478	C	0.687122	0.405633	0.97096
479	C	0.715584	0.30921	0.304194
480	C	0.590685	0.280735	0.970781
481	O	0.749645	0.334808	0.978737
482	O	0.66152	0.414082	0.978884
483	O	0.582221	0.246672	0.978631
484	C	0.81952	0.127961	0.055223
485	C	0.855988	0.153926	0.055612
486	C	0.868404	0.190836	0.055237
487	C	0.842429	0.201327	0.055566
488	C	0.805516	0.17684	0.388578
489	C	0.795023	0.140372	0.055598
490	H	0.850886	0.22769	0.052797
491	H	0.768658	0.122471	0.052842
492	H	0.873891	0.145469	0.052828
493	C	0.808633	0.091495	0.049042
494	C	0.779938	0.18772	0.38234
495	C	0.904862	0.216415	0.048988
496	O	0.746231	0.162393	0.038936
497	O	0.833953	0.083115	0.038925
498	O	0.913227	0.250105	0.038828
499	C	0.768798	0.236274	0.031541
500	N	0.739576	0.215399	0.339811
501	C	0.71936	0.226533	0.318983
502	C	0.728648	0.262418	0.322565
503	N	0.757786	0.283285	0.014211
504	C	0.77855	0.272645	0.035007
505	H	0.697695	0.20876	0.301243
506	C	0.808258	0.299315	0.058031
507	O	0.804156	0.32359	0.081392
508	N	0.841706	0.306126	0.0506
509	H	0.846692	0.292687	0.0288
510	H	0.861662	0.326897	0.063756
511	N	0.787441	0.222155	0.050685
512	H	0.808252	0.238303	0.067487
513	N	0.708334	0.274825	0.304169
514	H	0.686422	0.257167	0.290276
515	C	0.760072	0.031796	0.03159
516	N	0.78094	0.023445	0.339851
517	C	0.769802	0.492089	0.319032
518	C	0.733918	0.465491	0.322635
519	N	0.713058	0.473766	0.01429
520	C	0.723702	0.005176	0.035077
521	H	0.787567	0.488195	0.301283
522	C	0.697041	0.008218	0.058116
523	O	0.672777	0.979841	0.081494
524	N	0.690222	0.03485	0.050685
525	H	0.703653	0.053271	0.028876
526	H	0.669458	0.034037	0.063854
527	N	0.774197	0.064564	0.050722
528	H	0.758052	0.069227	0.067531
529	N	0.721504	0.432769	0.304242
530	H	0.739157	0.428514	0.290332
531	C	0.964551	0.227546	0.031486
532	N	0.972892	0.25676	0.339742
533	C	0.504238	0.276967	0.3189
534	C	0.530832	0.267677	0.32248
535	N	0.522565	0.238547	0.014137
536	C	0.991167	0.21779	0.034947
537	H	0.508128	0.298628	0.301154
538	C	0.988131	0.188087	0.057982
539	O	0.016518	0.192194	0.081327
540	N	0.961488	0.154639	0.050578
541	H	0.94305	0.149647	0.028789
542	H	0.962302	0.134688	0.06374
543	N	0.931794	0.208914	0.050654
544	H	0.927143	0.188116	0.067478
545	N	0.563554	0.287989	0.304081
546	H	0.567812	0.309904	0.29019
547	C	0.676231	0.369161	0.298122
548	C	0.639723	0.343253	0.297638
549	C	0.627159	0.30633	0.298007
550	C	0.653074	0.295738	0.297586
551	C	0.689998	0.320096	0.631371
552	C	0.700598	0.356607	0.297609
553	H	0.64456	0.269366	0.300057
554	H	0.726964	0.374456	0.300231
555	H	0.621866	0.351766	0.300149
556	C	0.687122	0.405633	0.304293
557	C	0.715584	0.30921	0.637527
558	C	0.590685	0.280735	0.304116
559	O	0.749645	0.334808	0.31207
560	O	0.66152	0.414082	0.312217
561	O	0.582221	0.246672	0.311964
562	C	0.81952	0.127961	0.388555
563	C	0.855988	0.153926	0.388944
564	C	0.868404	0.190836	0.388568
565	C	0.842429	0.201327	0.388901
566	C	0.805516	0.17684	0.721912
567	C	0.795023	0.140372	0.38893
568	H	0.850886	0.22769	0.386129
569	H	0.768658	0.122471	0.386175
570	H	0.873891	0.145469	0.386162
571	C	0.808633	0.091495	0.382373
572	C	0.779938	0.18772	0.715674
573	C	0.904862	0.216415	0.38232
574	O	0.746231	0.162393	0.372269
575	O	0.833953	0.083115	0.372259
576	O	0.913227	0.250105	0.37216
577	C	0.768798	0.236274	0.364874
578	N	0.739576	0.215399	0.673142
579	C	0.71936	0.226533	0.652317
580	C	0.728648	0.262418	0.655899
581	N	0.757786	0.283285	0.347545
582	C	0.77855	0.272645	0.368341
583	H	0.697695	0.20876	0.634575
584	C	0.808258	0.299315	0.391363
585	O	0.804156	0.32359	0.414725
586	N	0.841706	0.306126	0.383932
587	H	0.846692	0.292687	0.362133
588	H	0.861662	0.326897	0.39709
589	N	0.787441	0.222155	0.384018
590	H	0.808252	0.238303	0.400819
591	N	0.708334	0.274825	0.6375
592	H	0.686422	0.257167	0.623608
593	C	0.760072	0.031796	0.364924
594	N	0.78094	0.023445	0.673182
595	C	0.769802	0.492089	0.652363
596	C	0.733918	0.465491	0.655969
597	N	0.713058	0.473766	0.347622
598	C	0.723702	0.005176	0.368411
599	H	0.787567	0.488195	0.634615
600	C	0.697041	0.008218	0.39145
601	O	0.672777	0.979841	0.414828
602	N	0.690222	0.03485	0.384018
603	H	0.703653	0.053271	0.362209
604	H	0.669458	0.034037	0.397186
605	N	0.774197	0.064564	0.384055
606	H	0.758052	0.069227	0.400862
607	N	0.721504	0.432769	0.637576
608	H	0.739157	0.428514	0.623664
609	C	0.964551	0.227546	0.364818
610	N	0.972892	0.25676	0.673076
611	C	0.504238	0.276967	0.652233
612	C	0.530832	0.267677	0.655813
613	N	0.522565	0.238547	0.347469
614	C	0.991167	0.21779	0.368281
615	H	0.508128	0.298628	0.634486
616	C	0.988131	0.188087	0.391313
617	O	0.016518	0.192194	0.414662
618	N	0.961488	0.154639	0.383912
619	H	0.94305	0.149647	0.362123
620	H	0.962302	0.134688	0.397073
621	N	0.931794	0.208914	0.383985
622	H	0.927143	0.188116	0.400812
623	N	0.563554	0.287989	0.637414
624	H	0.567812	0.309904	0.623521
625	C	0.676231	0.369161	0.631454
626	C	0.639723	0.343253	0.630973
627	C	0.627159	0.30633	0.631338
628	C	0.653074	0.295738	0.630919
629	C	0.689998	0.320096	0.964705
630	C	0.700598	0.356607	0.630943
631	H	0.64456	0.269366	0.633389
632	H	0.726964	0.374456	0.633565
633	H	0.621866	0.351766	0.633482
634	C	0.687122	0.405633	0.637626
635	C	0.715584	0.30921	0.97086
636	C	0.590685	0.280735	0.63745
637	O	0.749645	0.334808	0.645403
638	O	0.66152	0.414082	0.64555
639	O	0.582221	0.246672	0.645297
640	C	0.81952	0.127961	0.721889
641	C	0.855988	0.153926	0.722278
642	C	0.868404	0.190836	0.721902
643	C	0.842429	0.201327	0.722231
644	C	0.805516	0.17684	0.055246
645	C	0.795023	0.140372	0.722264
646	H	0.850886	0.22769	0.719463
647	H	0.768658	0.122471	0.719509
648	H	0.873891	0.145469	0.719496
649	C	0.808633	0.091495	0.715707
650	C	0.779938	0.18772	0.049006
651	C	0.904862	0.216415	0.715654
652	O	0.746231	0.162393	0.705603
653	O	0.833953	0.083115	0.70559
654	O	0.913227	0.250105	0.705494
655	C	0.768798	0.236274	0.698205
656	N	0.739576	0.215399	0.006478
657	C	0.71936	0.226533	0.98565
658	C	0.728648	0.262418	0.98923
659	N	0.757786	0.283285	0.680876
660	C	0.77855	0.272645	0.701671
661	H	0.697695	0.20876	0.967909
662	C	0.808258	0.299315	0.724697
663	O	0.804156	0.32359	0.748058
664	N	0.841706	0.306126	0.717266
665	H	0.846692	0.292687	0.695466
666	H	0.861662	0.326897	0.73042
667	N	0.787441	0.222155	0.717352
668	H	0.808252	0.238303	0.734153
669	N	0.708334	0.274825	0.970834
670	H	0.686422	0.257167	0.956941
671	C	0.760072	0.031796	0.698255
672	N	0.78094	0.023445	0.006518
673	C	0.769802	0.492089	0.985697
674	C	0.733918	0.465491	0.9893
675	N	0.713058	0.473766	0.680956
676	C	0.723702	0.005176	0.701741
677	H	0.787567	0.488195	0.967949
678	C	0.697041	0.008218	0.72478
679	O	0.672777	0.979841	0.748158
680	N	0.690222	0.03485	0.717352
681	H	0.703653	0.053271	0.695543
682	H	0.669458	0.034037	0.73052
683	N	0.774197	0.064564	0.717389
684	H	0.758052	0.069227	0.734196
685	N	0.721504	0.432769	0.970907
686	H	0.739157	0.428514	0.956998
687	C	0.964551	0.227546	0.698152
688	N	0.972892	0.25676	0.00641
689	C	0.504238	0.276967	0.985564
690	C	0.530832	0.267677	0.989147
691	N	0.522565	0.238547	0.680803
692	C	0.991167	0.21779	0.701612
693	H	0.508128	0.298628	0.967819
694	C	0.988131	0.188087	0.724647
695	O	0.016518	0.192194	0.747992
696	N	0.961488	0.154639	0.717246
697	H	0.94305	0.149647	0.695453
698	H	0.962302	0.134688	0.730407
699	N	0.931794	0.208914	0.717319
700	H	0.927143	0.188116	0.734143
701	N	0.563554	0.287989	0.970747
702	H	0.567812	0.309904	0.956855
703	C	0.67623	0.86916	0.964788
704	C	0.639723	0.843251	0.964303
705	C	0.62716	0.806331	0.964672
706	C	0.653075	0.795737	0.96425
707	C	0.689997	0.820094	0.29804
708	C	0.700599	0.856608	0.964276
709	H	0.644559	0.769364	0.966723
710	H	0.726963	0.874454	0.966895
711	H	0.621866	0.851764	0.966816
712	C	0.687121	0.905631	0.97096
713	C	0.715585	0.809211	0.304194
714	C	0.590686	0.780736	0.970781
715	O	0.749646	0.834809	0.978737
716	O	0.661521	0.914083	0.978884
717	O	0.582222	0.746671	0.978631
718	C	0.819521	0.627961	0.055223
719	C	0.855988	0.653926	0.055612
720	C	0.868406	0.690835	0.055237
721	C	0.842429	0.701326	0.055566
722	C	0.805518	0.676838	0.388578
723	C	0.795025	0.640372	0.055598
724	H	0.850888	0.727691	0.052797
725	H	0.768658	0.622471	0.052842
726	H	0.873891	0.645468	0.052828
727	C	0.808633	0.591495	0.049042
728	C	0.77994	0.687719	0.38234
729	C	0.904862	0.716415	0.048988
730	O	0.74623	0.662391	0.038937
731	O	0.833954	0.583114	0.038925
732	O	0.913227	0.750105	0.038828
733	C	0.768797	0.736273	0.031541
734	N	0.739576	0.715399	0.339811
735	C	0.719359	0.726532	0.318983
736	C	0.728648	0.762418	0.322565
737	N	0.757785	0.783283	0.014211
738	C	0.77855	0.772646	0.035007
739	H	0.697695	0.70876	0.301243
740	C	0.808257	0.799313	0.058031
741	O	0.804155	0.823589	0.081392
742	N	0.841705	0.806125	0.0506
743	H	0.846695	0.792688	0.0288
744	H	0.861661	0.826895	0.063756
745	N	0.787443	0.722155	0.050685
746	H	0.808252	0.738304	0.067487
747	N	0.708334	0.774826	0.304169
748	H	0.686421	0.757165	0.290276
749	C	0.760074	0.531796	0.03159
750	N	0.78094	0.523444	0.339851
751	C	0.769801	0.992088	0.319032
752	C	0.733918	0.96549	0.322635
753	N	0.71306	0.973767	0.01429
754	C	0.723705	0.505176	0.035077
755	H	0.78757	0.988196	0.301283
756	C	0.697041	0.508217	0.058116
757	O	0.672778	0.479843	0.081494
758	N	0.690225	0.53485	0.050685
759	H	0.703653	0.553271	0.028876
760	H	0.669458	0.534036	0.063854
761	N	0.774196	0.564563	0.050722
762	H	0.758054	0.569227	0.067531
763	N	0.721503	0.932767	0.304242
764	H	0.739158	0.928515	0.290332
765	C	0.964551	0.727545	0.031486
766	N	0.972892	0.75676	0.339742
767	C	0.504238	0.776968	0.3189
768	C	0.530834	0.767678	0.32248
769	N	0.522565	0.738545	0.014137
770	C	0.991168	0.717788	0.034947
771	H	0.508126	0.798627	0.301154
772	C	0.98813	0.688085	0.057982
773	O	0.016518	0.692192	0.081327
774	N	0.961488	0.654639	0.050578
775	H	0.94305	0.649647	0.028789
776	H	0.962302	0.634688	0.06374
777	N	0.931797	0.708914	0.050654
778	H	0.927143	0.688117	0.067478
779	N	0.563553	0.787987	0.30408
780	H	0.567812	0.809903	0.29019
781	C	0.67623	0.86916	0.298122
782	C	0.639723	0.843251	0.297638
783	C	0.62716	0.806331	0.298007
784	C	0.653075	0.795737	0.297586
785	C	0.689997	0.820094	0.631371
786	C	0.700599	0.856608	0.297609
787	H	0.644559	0.769364	0.300057
788	H	0.726963	0.874454	0.300231
789	H	0.621866	0.851764	0.300149
790	C	0.687121	0.905631	0.304293
791	C	0.715585	0.809211	0.637527
792	C	0.590686	0.780736	0.304116
793	O	0.749646	0.834809	0.31207
794	O	0.661521	0.914083	0.312217
795	O	0.582222	0.746671	0.311964
796	C	0.819521	0.627961	0.388555
797	C	0.855988	0.653926	0.388944
798	C	0.868406	0.690835	0.388568
799	C	0.842429	0.701326	0.388901
800	C	0.805518	0.676838	0.721912
801	C	0.795025	0.640372	0.38893
802	H	0.850888	0.727691	0.386129
803	H	0.768658	0.622471	0.386175
804	H	0.873891	0.645468	0.386162
805	C	0.808633	0.591495	0.382373
806	C	0.77994	0.687719	0.715674
807	C	0.904862	0.716415	0.38232
808	O	0.74623	0.662391	0.372269
809	O	0.833954	0.583114	0.372259
810	O	0.913227	0.750105	0.37216
811	C	0.768797	0.736273	0.364874
812	N	0.739576	0.715399	0.673142
813	C	0.719359	0.726532	0.652317
814	C	0.728648	0.762418	0.655899
815	N	0.757785	0.783283	0.347545
816	C	0.77855	0.772646	0.368341
817	H	0.697695	0.70876	0.634575
818	C	0.808257	0.799313	0.391363
819	O	0.804155	0.823589	0.414725
820	N	0.841705	0.806125	0.383932
821	H	0.846695	0.792688	0.362133
822	H	0.861661	0.826895	0.39709
823	N	0.787443	0.722155	0.384018
824	H	0.808252	0.738304	0.400819
825	N	0.708334	0.774826	0.6375
826	H	0.686421	0.757165	0.623608
827	C	0.760074	0.531796	0.364924
828	N	0.78094	0.523444	0.673185
829	C	0.769801	0.992088	0.652363
830	C	0.733918	0.96549	0.655969
831	N	0.71306	0.973767	0.347622
832	C	0.723705	0.505176	0.368411
833	H	0.78757	0.988196	0.634615
834	C	0.697041	0.508217	0.39145
835	O	0.672778	0.479843	0.414828
836	N	0.690225	0.53485	0.384018
837	H	0.703653	0.553271	0.362209
838	H	0.669458	0.534036	0.397186
839	N	0.774196	0.564563	0.384055
840	H	0.758054	0.569227	0.400862
841	N	0.721503	0.932767	0.637576
842	H	0.739158	0.928515	0.623664
843	C	0.964551	0.727545	0.364818
844	N	0.972892	0.75676	0.673076
845	C	0.504238	0.776968	0.652233
846	C	0.530834	0.767678	0.655813
847	N	0.522565	0.738545	0.347469
848	C	0.991168	0.717788	0.368281
849	H	0.508126	0.798627	0.634486
850	C	0.98813	0.688085	0.391313
851	O	0.016518	0.692192	0.414662
852	N	0.961488	0.654639	0.383912
853	H	0.94305	0.649647	0.362123
854	H	0.962302	0.634688	0.397073
855	N	0.931797	0.708914	0.383985
856	H	0.927143	0.688117	0.400812
857	N	0.563553	0.787987	0.637414
858	H	0.567812	0.809903	0.623521
859	C	0.67623	0.86916	0.631454
860	C	0.639723	0.843251	0.630973
861	C	0.62716	0.806331	0.631338
862	C	0.653075	0.795737	0.630919
863	C	0.689997	0.820094	0.964705
864	C	0.700599	0.856608	0.630943
865	H	0.644559	0.769364	0.633389
866	H	0.726963	0.874454	0.633565
867	H	0.621866	0.851764	0.633482
868	C	0.687121	0.905631	0.637626
869	C	0.715585	0.809211	0.97086
870	C	0.590686	0.780736	0.63745
871	O	0.749646	0.834809	0.645403
872	O	0.661521	0.914083	0.64555
873	O	0.582222	0.746671	0.645297
874	C	0.819521	0.627961	0.721889
875	C	0.855988	0.653926	0.722278
876	C	0.868406	0.690835	0.721902
877	C	0.842429	0.701326	0.722231
878	C	0.805518	0.676838	0.055246
879	C	0.795025	0.640372	0.722264
880	H	0.850888	0.727691	0.719463
881	H	0.768658	0.622471	0.719509
882	H	0.873891	0.645468	0.719496
883	C	0.808633	0.591495	0.715707
884	C	0.77994	0.687719	0.049006
885	C	0.904862	0.716415	0.715654
886	O	0.74623	0.662391	0.705603
887	O	0.833954	0.583114	0.70559
888	O	0.913227	0.750105	0.705494
889	C	0.768797	0.736273	0.698205
890	N	0.739576	0.715399	0.006478
891	C	0.719359	0.726532	0.98565
892	C	0.728648	0.762418	0.98923
893	N	0.757785	0.783283	0.680876
894	C	0.77855	0.772646	0.701671
895	H	0.697695	0.70876	0.967909
896	C	0.808257	0.799313	0.724697
897	O	0.804155	0.823589	0.748058
898	N	0.841705	0.806125	0.717266
899	H	0.846695	0.792688	0.695466
900	H	0.861661	0.826895	0.73042
901	N	0.787443	0.722155	0.717352
902	H	0.808252	0.738304	0.734153
903	N	0.708334	0.774826	0.970834
904	H	0.686421	0.757165	0.956941
905	C	0.760074	0.531796	0.698255
906	N	0.78094	0.523444	0.006518
907	C	0.769801	0.992088	0.985697
908	C	0.733918	0.96549	0.9893
909	N	0.71306	0.973767	0.680956
910	C	0.723705	0.505176	0.701741
911	H	0.78757	0.988196	0.967949
912	C	0.697041	0.508217	0.72478
913	O	0.672778	0.479843	0.748158
914	N	0.690225	0.53485	0.717352
915	H	0.703653	0.553271	0.695543
916	H	0.669458	0.534036	0.73052
917	N	0.774196	0.564563	0.717389
918	H	0.758054	0.569227	0.734196
919	N	0.721503	0.932767	0.970907
920	H	0.739158	0.928515	0.956998
921	C	0.964551	0.727545	0.698152
922	N	0.972892	0.75676	0.00641
923	C	0.504238	0.776968	0.985564
924	C	0.530834	0.767678	0.989147
925	N	0.522565	0.738545	0.680803
926	C	0.991168	0.717788	0.701612
927	H	0.508126	0.798627	0.967819
928	C	0.98813	0.688085	0.724647
929	O	0.016518	0.692192	0.747992
930	N	0.961488	0.654639	0.717246
931	H	0.94305	0.649647	0.695453
932	H	0.962302	0.634688	0.730407
933	N	0.931797	0.708914	0.717319
934	H	0.927143	0.688117	0.734143
935	N	0.563553	0.787987	0.970747
936	H	0.567812	0.809903	0.956855
