data_C504H216N144O144_2018-02-15_10:36:49
#******************************************
#
# CIF file created by Zeo++
# Zeo++ is an open source package to
# analyze microporous materials
#
#*******************************************

_cell_length_a		44.1329   
_cell_length_b		44.1329   
_cell_length_c		29.6808   
_cell_angle_alpha		90   
_cell_angle_beta		90   
_cell_angle_gamma		120   

_symmetry_space_group_name_H-M		'P1'
_symmetry_Int_Tables_number		1
_symmetry_cell_setting		Monoclinic

loop_
_symmetry_equiv_pos_as_xyz
'+x,+y,+z'

loop_
_atom_site_label
_atom_site_type_symbol
_atom_site_fract_x
_atom_site_fract_y
_atom_site_fract_z
1	C	0.027351	0.26481	0.010657
2	C	0.046756	0.269627	0.050897
3	C	0.083867	0.287963	0.049346
4	C	0.102086	0.302186	0.008714
5	C	0.082673	0.29751	0.302349
6	C	0.045839	0.278763	0.303262
7	H	0.097645	0.291181	0.07845
8	H	0.095216	0.307489	0.272356
9	H	0.032544	0.275927	0.273834
10	N	0.028748	0.255318	0.091834
11	O	0.036165	0.278753	0.120839
12	C	0.027351	0.26481	0.34399
13	C	0.046756	0.269627	0.384231
14	C	0.083867	0.287963	0.382678
15	C	0.102086	0.302186	0.342049
16	C	0.082673	0.29751	0.635683
17	C	0.045839	0.278763	0.636596
18	H	0.097645	0.291181	0.411784
19	H	0.095216	0.307489	0.605691
20	H	0.032544	0.275927	0.60717
21	N	0.028748	0.255318	0.425167
22	O	0.036165	0.278753	0.454172
23	C	0.027351	0.26481	0.677323
24	C	0.046756	0.269627	0.717564
25	C	0.083867	0.287963	0.716014
26	C	0.102086	0.302186	0.675382
27	C	0.082673	0.29751	0.969016
28	C	0.045839	0.278763	0.969929
29	H	0.097645	0.291181	0.745117
30	H	0.095216	0.307489	0.939024
31	H	0.032544	0.275927	0.940503
32	N	0.028748	0.255318	0.7585
33	O	0.036165	0.278753	0.787505
34	C	0.027352	0.76481	0.010657
35	C	0.046756	0.769627	0.050897
36	C	0.083867	0.787963	0.049346
37	C	0.102085	0.802183	0.008714
38	C	0.082672	0.79751	0.302349
39	C	0.045839	0.778763	0.303262
40	H	0.097644	0.791181	0.07845
41	H	0.095214	0.807489	0.272356
42	H	0.032543	0.775927	0.273834
43	N	0.028748	0.755318	0.091834
44	O	0.036165	0.778753	0.120839
45	C	0.027352	0.76481	0.34399
46	C	0.046756	0.769627	0.384231
47	C	0.083867	0.787963	0.382678
48	C	0.102085	0.802183	0.342049
49	C	0.082672	0.79751	0.635683
50	C	0.045839	0.778763	0.636596
51	H	0.097644	0.791181	0.411784
52	H	0.095214	0.807489	0.605691
53	H	0.032543	0.775927	0.60717
54	N	0.028748	0.755318	0.425167
55	O	0.036165	0.778753	0.454172
56	C	0.027352	0.76481	0.677323
57	C	0.046756	0.769627	0.717564
58	C	0.083867	0.787963	0.716014
59	C	0.102085	0.802183	0.675382
60	C	0.082672	0.79751	0.969016
61	C	0.045839	0.778763	0.969929
62	H	0.097644	0.791181	0.745117
63	H	0.095214	0.807489	0.939024
64	H	0.032543	0.775927	0.940503
65	N	0.028748	0.755318	0.7585
66	O	0.036165	0.778753	0.787505
67	O	0.035764	0.233115	0.107604
68	O	0.035764	0.233115	0.440938
69	O	0.035764	0.233115	0.774271
70	O	0.035762	0.733115	0.107604
71	O	0.035762	0.733115	0.440938
72	O	0.035762	0.733115	0.774271
73	C	0.192495	0.374448	0.007932
74	N	0.15691	0.356319	0.008066
75	C	0.138993	0.320736	0.007933
76	N	0.15712	0.303279	0.008067
77	C	0.192704	0.320945	0.007933
78	C	0.192495	0.374448	0.341264
79	N	0.15691	0.356319	0.341399
80	C	0.138993	0.320736	0.341267
81	N	0.15712	0.303279	0.341399
82	C	0.192704	0.320945	0.341267
83	C	0.192495	0.374448	0.6746
84	N	0.15691	0.356319	0.674732
85	C	0.138993	0.320736	0.6746
86	N	0.15712	0.303279	0.674735
87	C	0.192704	0.320945	0.6746
88	C	0.192494	0.874448	0.007932
89	N	0.15691	0.856319	0.008066
90	C	0.138993	0.820736	0.007933
91	N	0.15712	0.803279	0.008067
92	C	0.192704	0.820945	0.007933
93	C	0.192494	0.874448	0.341264
94	N	0.15691	0.856319	0.341399
95	C	0.138993	0.820736	0.341267
96	N	0.15712	0.803279	0.341399
97	C	0.192704	0.820945	0.341267
98	C	0.192494	0.874448	0.6746
99	N	0.15691	0.856319	0.674732
100	C	0.138993	0.820736	0.6746
101	N	0.15712	0.803279	0.674735
102	C	0.192704	0.820945	0.6746
103	N	0.210161	0.356529	0.008066
104	C	0.243811	0.279815	0.050898
105	C	0.225475	0.298591	0.049347
106	C	0.211255	0.302589	0.008714
107	C	0.215931	0.287853	0.302349
108	C	0.234676	0.269763	0.303262
109	H	0.222256	0.309151	0.07845
110	H	0.205953	0.290417	0.272355
111	H	0.237514	0.259307	0.273834
112	H	0.231656	0.205709	0.053664
113	O	0.234682	0.260096	0.120839
114	O	0.229187	0.141836	0.050652
115	H	0.233041	0.030237	0.300446
116	C	0.233625	0.466685	0.050897
117	C	0.21485	0.429574	0.049346
118	C	0.210851	0.411356	0.008714
119	C	0.225588	0.430767	0.302348
120	C	0.243677	0.467601	0.303262
121	H	0.204289	0.415793	0.07845
122	H	0.223023	0.418224	0.272355
123	N	0.237324	0.484691	0.091834
124	O	0.208105	0.977676	0.107606
125	N	0.210161	0.356529	0.341399
126	C	0.243811	0.279815	0.384231
127	C	0.225475	0.298591	0.382681
128	C	0.211255	0.302589	0.342049
129	C	0.215931	0.287853	0.635683
130	C	0.234676	0.269763	0.636596
131	H	0.222256	0.309151	0.411784
132	H	0.205953	0.290417	0.605687
133	H	0.237514	0.259307	0.607166
134	H	0.231656	0.205709	0.386997
135	O	0.234682	0.260096	0.454172
136	O	0.229187	0.141836	0.383985
137	H	0.233041	0.030237	0.63378
138	C	0.233625	0.466685	0.384231
139	C	0.21485	0.429574	0.382678
140	C	0.210851	0.411356	0.342046
141	C	0.225588	0.430767	0.635683
142	C	0.243677	0.467601	0.636596
143	H	0.204289	0.415793	0.411784
144	H	0.223023	0.418224	0.605687
145	N	0.237324	0.484691	0.425167
146	O	0.208105	0.977676	0.440938
147	N	0.210161	0.356529	0.674732
148	C	0.243811	0.279815	0.717564
149	C	0.225475	0.298591	0.716014
150	C	0.211255	0.302589	0.675382
151	C	0.215931	0.287853	0.969016
152	C	0.234676	0.269763	0.969929
153	H	0.222256	0.309151	0.745117
154	H	0.205953	0.290417	0.939024
155	H	0.237514	0.259307	0.940503
156	H	0.231656	0.205709	0.72033
157	O	0.234682	0.260096	0.787505
158	O	0.229187	0.141836	0.717318
159	H	0.233041	0.030237	0.967113
160	C	0.233625	0.466685	0.717564
161	C	0.21485	0.429574	0.716014
162	C	0.210851	0.411356	0.675382
163	C	0.225588	0.430767	0.969016
164	C	0.243677	0.467601	0.969929
165	H	0.204289	0.415793	0.745117
166	H	0.223023	0.418224	0.939024
167	N	0.237324	0.484691	0.758503
168	O	0.208105	0.977676	0.774274
169	N	0.21016	0.856528	0.008066
170	C	0.24381	0.779815	0.050898
171	C	0.225474	0.79859	0.049347
172	C	0.211255	0.802588	0.008714
173	C	0.215931	0.787853	0.302349
174	C	0.234676	0.769763	0.303262
175	H	0.222255	0.80915	0.07845
176	H	0.205953	0.790417	0.272355
177	H	0.237514	0.759308	0.273834
178	H	0.231655	0.705708	0.053664
179	O	0.234681	0.760095	0.120839
180	O	0.229187	0.641836	0.050652
181	H	0.233041	0.530238	0.300446
182	C	0.233624	0.966682	0.050897
183	C	0.21485	0.929574	0.049346
184	C	0.210849	0.911353	0.008714
185	C	0.225588	0.930767	0.302348
186	C	0.243677	0.967601	0.303261
187	H	0.204289	0.915793	0.07845
188	H	0.223024	0.918224	0.272355
189	N	0.237324	0.984691	0.091834
190	O	0.208106	0.477677	0.107606
191	N	0.21016	0.856528	0.341399
192	C	0.24381	0.779815	0.384231
193	C	0.225474	0.79859	0.382681
194	C	0.211255	0.802588	0.342049
195	C	0.215931	0.787853	0.635683
196	C	0.234676	0.769763	0.636596
197	H	0.222255	0.80915	0.411784
198	H	0.205953	0.790417	0.605687
199	H	0.237514	0.759308	0.607166
200	H	0.231655	0.705708	0.386997
201	O	0.234681	0.760095	0.454172
202	O	0.229187	0.641836	0.383985
203	H	0.233041	0.530238	0.63378
204	C	0.233624	0.966682	0.384231
205	C	0.21485	0.929574	0.382678
206	C	0.210849	0.911353	0.342046
207	C	0.225588	0.930767	0.635683
208	C	0.243677	0.967601	0.636596
209	H	0.204289	0.915793	0.411784
210	H	0.223024	0.918224	0.605687
211	N	0.237324	0.984691	0.425167
212	O	0.208106	0.477677	0.440938
213	N	0.21016	0.856528	0.674732
214	C	0.24381	0.779815	0.717564
215	C	0.225474	0.79859	0.716014
216	C	0.211255	0.802588	0.675382
217	C	0.215931	0.787853	0.969016
218	C	0.234676	0.769763	0.969929
219	H	0.222255	0.80915	0.745117
220	H	0.205953	0.790417	0.939024
221	H	0.237514	0.759308	0.940503
222	H	0.231655	0.705708	0.72033
223	O	0.234681	0.760095	0.787505
224	O	0.229187	0.641836	0.717318
225	H	0.233041	0.530238	0.967113
226	C	0.233624	0.966682	0.717564
227	C	0.21485	0.929574	0.716014
228	C	0.210849	0.911353	0.675382
229	C	0.225588	0.930767	0.969016
230	C	0.243677	0.967601	0.969929
231	H	0.204289	0.915793	0.745117
232	H	0.223024	0.918224	0.939024
233	N	0.237324	0.984691	0.758503
234	O	0.208106	0.477677	0.774274
235	C	0.324018	0.135978	0.010118
236	N	0.359607	0.15511	0.010051
237	C	0.377462	0.190728	0.010118
238	N	0.358331	0.207187	0.010051
239	C	0.322713	0.189423	0.010119
240	N	0.306253	0.153832	0.010052
241	C	0.303524	0.207601	0.010787
242	C	0.272024	0.195428	0.035837
243	C	0.254241	0.214762	0.035386
244	C	0.26678	0.245992	0.010363
245	C	0.297921	0.257747	0.318773
246	C	0.316129	0.23912	0.319424
247	H	0.307947	0.280399	0.300447
248	H	0.338597	0.248639	0.300788
249	C	0.248629	0.265229	0.010657
250	N	0.258119	0.276116	0.091835
251	N	0.259337	0.164912	0.06263
252	O	0.280321	0.305333	0.107607
253	O	0.258745	0.171508	0.10371
254	C	0.30584	0.098611	0.010788
255	C	0.318013	0.079285	0.035837
256	C	0.298679	0.042167	0.035386
257	C	0.267448	0.023478	0.010362
258	C	0.255694	0.042863	0.318773
259	C	0.27432	0.079698	0.319425
260	H	0.264802	0.092648	0.300788
261	C	0.248211	0.486088	0.010657
262	H	0.254134	0.480895	0.273834
263	H	0.307732	0.028636	0.053663
264	N	0.348528	0.097113	0.06263
265	O	0.253343	0.477274	0.120839
266	O	0.371604	0.090041	0.050651
267	O	0.341932	0.089926	0.103709
268	C	0.414829	0.209917	0.010785
269	C	0.434156	0.241416	0.035837
270	C	0.471274	0.259199	0.035386
271	C	0.489963	0.246659	0.010362
272	C	0.470577	0.215519	0.318772
273	C	0.433743	0.197311	0.319423
274	H	0.483203	0.205492	0.300446
275	H	0.420792	0.174843	0.300786
276	H	0.484805	0.281783	0.053665
277	N	0.416327	0.254103	0.06263
278	O	0.423401	0.284253	0.050654
279	O	0.535764	0.233115	0.107604
280	O	0.423513	0.254693	0.10371
281	C	0.324018	0.135978	0.343451
282	N	0.359607	0.15511	0.343383
283	C	0.377462	0.190728	0.343451
284	N	0.358331	0.207187	0.343383
285	C	0.322713	0.189423	0.343451
286	N	0.306253	0.153832	0.343387
287	C	0.303524	0.207601	0.344121
288	C	0.272024	0.195428	0.369171
289	C	0.254241	0.214762	0.36872
290	C	0.26678	0.245992	0.343697
291	C	0.297921	0.257747	0.652108
292	C	0.316129	0.23912	0.652758
293	H	0.307947	0.280399	0.63378
294	H	0.338597	0.248639	0.63412
295	C	0.248629	0.265229	0.34399
296	N	0.258119	0.276116	0.42517
297	N	0.259337	0.164912	0.395963
298	O	0.280321	0.305333	0.440941
299	O	0.258745	0.171508	0.437043
300	C	0.30584	0.098611	0.344121
301	C	0.318013	0.079285	0.369171
302	C	0.298679	0.042167	0.36872
303	C	0.267448	0.023478	0.343697
304	C	0.255694	0.042863	0.652108
305	C	0.27432	0.079698	0.652758
306	H	0.264802	0.092648	0.63412
307	C	0.248211	0.486088	0.34399
308	H	0.254134	0.480895	0.607166
309	H	0.307732	0.028636	0.386997
310	N	0.348528	0.097113	0.395963
311	O	0.253343	0.477274	0.454172
312	O	0.371604	0.090041	0.383985
313	O	0.341932	0.089926	0.437043
314	C	0.414829	0.209917	0.344118
315	C	0.434156	0.241416	0.369171
316	C	0.471274	0.259199	0.36872
317	C	0.489963	0.246659	0.343697
318	C	0.470577	0.215519	0.652104
319	C	0.433743	0.197311	0.652758
320	H	0.483203	0.205492	0.63378
321	H	0.420792	0.174843	0.63412
322	H	0.484805	0.281783	0.386997
323	N	0.416327	0.254103	0.395963
324	O	0.423401	0.284253	0.383989
325	O	0.535764	0.233115	0.440938
326	O	0.423513	0.254693	0.437043
327	C	0.324018	0.135978	0.676787
328	N	0.359607	0.15511	0.67672
329	C	0.377462	0.190728	0.676784
330	N	0.358331	0.207187	0.67672
331	C	0.322713	0.189423	0.676787
332	N	0.306253	0.153832	0.67672
333	C	0.303524	0.207601	0.677454
334	C	0.272024	0.195428	0.702504
335	C	0.254241	0.214762	0.702053
336	C	0.26678	0.245992	0.67703
337	C	0.297921	0.257747	0.985441
338	C	0.316129	0.23912	0.986091
339	H	0.307947	0.280399	0.967113
340	H	0.338597	0.248639	0.967456
341	C	0.248629	0.265229	0.677326
342	N	0.258119	0.276116	0.758503
343	N	0.259337	0.164912	0.729296
344	O	0.280321	0.305333	0.774274
345	O	0.258745	0.171508	0.770376
346	C	0.30584	0.098611	0.677454
347	C	0.318013	0.079285	0.702504
348	C	0.298679	0.042167	0.702053
349	C	0.267448	0.023478	0.67703
350	C	0.255694	0.042863	0.985441
351	C	0.27432	0.079698	0.986091
352	H	0.264802	0.092648	0.967456
353	C	0.248211	0.486088	0.677323
354	H	0.254134	0.480895	0.940503
355	H	0.307732	0.028636	0.72033
356	N	0.348528	0.097113	0.729296
357	O	0.253343	0.477274	0.787505
358	O	0.371604	0.090041	0.717318
359	O	0.341932	0.089926	0.770376
360	C	0.414829	0.209917	0.677454
361	C	0.434156	0.241416	0.702504
362	C	0.471274	0.259199	0.702053
363	C	0.489963	0.246659	0.67703
364	C	0.470577	0.215519	0.985441
365	C	0.433743	0.197311	0.986091
366	H	0.483203	0.205492	0.967113
367	H	0.420792	0.174843	0.967453
368	H	0.484805	0.281783	0.72033
369	N	0.416327	0.254103	0.729296
370	O	0.423401	0.284253	0.717322
371	O	0.535764	0.233115	0.774271
372	O	0.423513	0.254693	0.770376
373	C	0.324017	0.635978	0.010118
374	N	0.359607	0.655109	0.010051
375	C	0.377461	0.690726	0.010118
376	N	0.35833	0.707186	0.010051
377	C	0.322712	0.689423	0.010119
378	N	0.306253	0.653832	0.010052
379	C	0.303524	0.707602	0.010787
380	C	0.272024	0.695428	0.035837
381	C	0.25424	0.714761	0.035386
382	C	0.266779	0.74599	0.010363
383	C	0.29792	0.757746	0.318773
384	C	0.316128	0.739119	0.319424
385	H	0.307947	0.780399	0.300447
386	H	0.338597	0.748638	0.300788
387	C	0.248629	0.765229	0.010657
388	N	0.258119	0.776115	0.091835
389	N	0.259336	0.664913	0.06263
390	O	0.28032	0.805333	0.107607
391	O	0.258745	0.671509	0.10371
392	C	0.305838	0.59861	0.010788
393	C	0.318012	0.579285	0.035837
394	C	0.298677	0.542166	0.035386
395	C	0.267448	0.523477	0.010362
396	C	0.255693	0.542862	0.318773
397	C	0.27432	0.579698	0.319425
398	H	0.264801	0.592647	0.300788
399	C	0.248212	0.986088	0.010657
400	H	0.254133	0.980895	0.273834
401	H	0.30773	0.528634	0.053663
402	N	0.348528	0.597113	0.06263
403	O	0.253342	0.977273	0.120839
404	O	0.371605	0.590041	0.050651
405	O	0.341933	0.589926	0.103709
406	C	0.414828	0.709915	0.010785
407	C	0.434155	0.741417	0.035837
408	C	0.471272	0.759198	0.035386
409	C	0.489962	0.74666	0.010362
410	C	0.470578	0.715519	0.318772
411	C	0.433741	0.697309	0.319423
412	H	0.483202	0.705491	0.300446
413	H	0.420792	0.674842	0.300786
414	H	0.484804	0.781783	0.053665
415	N	0.416326	0.754101	0.06263
416	O	0.4234	0.784253	0.050654
417	O	0.535763	0.733115	0.107604
418	O	0.423513	0.754692	0.10371
419	C	0.324017	0.635978	0.343451
420	N	0.359607	0.655109	0.343383
421	C	0.377461	0.690726	0.343451
422	N	0.35833	0.707186	0.343383
423	C	0.322712	0.689423	0.343451
424	N	0.306253	0.653832	0.343387
425	C	0.303524	0.707602	0.344121
426	C	0.272024	0.695428	0.369171
427	C	0.25424	0.714761	0.36872
428	C	0.266779	0.74599	0.343697
429	C	0.29792	0.757746	0.652108
430	C	0.316128	0.739119	0.652758
431	H	0.307947	0.780399	0.63378
432	H	0.338597	0.748638	0.63412
433	C	0.248629	0.765229	0.34399
434	N	0.258119	0.776115	0.42517
435	N	0.259336	0.664913	0.395963
436	O	0.28032	0.805333	0.440941
437	O	0.258745	0.671509	0.437043
438	C	0.305838	0.59861	0.344121
439	C	0.318012	0.579285	0.369171
440	C	0.298677	0.542166	0.36872
441	C	0.267448	0.523477	0.343697
442	C	0.255693	0.542862	0.652108
443	C	0.27432	0.579698	0.652758
444	H	0.264801	0.592647	0.63412
445	C	0.248212	0.986088	0.34399
446	H	0.254133	0.980895	0.607166
447	H	0.30773	0.528634	0.386997
448	N	0.348528	0.597113	0.395963
449	O	0.253342	0.977273	0.454172
450	O	0.371605	0.590041	0.383985
451	O	0.341933	0.589926	0.437043
452	C	0.414828	0.709915	0.344118
453	C	0.434155	0.741417	0.369171
454	C	0.471272	0.759198	0.36872
455	C	0.489962	0.74666	0.343697
456	C	0.470578	0.715519	0.652104
457	C	0.433741	0.697309	0.652758
458	H	0.483202	0.705491	0.63378
459	H	0.420792	0.674842	0.63412
460	H	0.484804	0.781783	0.386997
461	N	0.416326	0.754101	0.395963
462	O	0.4234	0.784253	0.383989
463	O	0.535763	0.733115	0.440938
464	O	0.423513	0.754692	0.437043
465	C	0.324017	0.635978	0.676787
466	N	0.359607	0.655109	0.67672
467	C	0.377461	0.690726	0.676784
468	N	0.35833	0.707186	0.67672
469	C	0.322712	0.689423	0.676787
470	N	0.306253	0.653832	0.67672
471	C	0.303524	0.707602	0.677454
472	C	0.272024	0.695428	0.702504
473	C	0.25424	0.714761	0.702053
474	C	0.266779	0.74599	0.67703
475	C	0.29792	0.757746	0.985441
476	C	0.316128	0.739119	0.986091
477	H	0.307947	0.780399	0.967113
478	H	0.338597	0.748638	0.967456
479	C	0.248629	0.765229	0.677326
480	N	0.258119	0.776115	0.758503
481	N	0.259336	0.664913	0.729296
482	O	0.28032	0.805333	0.774274
483	O	0.258745	0.671509	0.770376
484	C	0.305838	0.59861	0.677454
485	C	0.318012	0.579285	0.702504
486	C	0.298677	0.542166	0.702053
487	C	0.267448	0.523477	0.67703
488	C	0.255693	0.542862	0.985441
489	C	0.27432	0.579698	0.986091
490	H	0.264801	0.592647	0.967456
491	C	0.248212	0.986088	0.677323
492	H	0.254133	0.980895	0.940503
493	H	0.30773	0.528634	0.72033
494	N	0.348528	0.597113	0.729296
495	O	0.253342	0.977273	0.787505
496	O	0.371605	0.590041	0.717318
497	O	0.341933	0.589926	0.770376
498	C	0.414828	0.709915	0.677454
499	C	0.434155	0.741417	0.702504
500	C	0.471272	0.759198	0.702053
501	C	0.489962	0.74666	0.67703
502	C	0.470578	0.715519	0.985441
503	C	0.433741	0.697309	0.986091
504	H	0.483202	0.705491	0.967113
505	H	0.420792	0.674842	0.967453
506	H	0.484804	0.781783	0.72033
507	N	0.416326	0.754101	0.729296
508	O	0.4234	0.784253	0.717322
509	O	0.535763	0.733115	0.774271
510	O	0.423513	0.754692	0.770376
511	C	0.692493	0.374448	0.007932
512	N	0.656909	0.356319	0.008066
513	C	0.638992	0.320736	0.007933
514	N	0.657119	0.303279	0.008067
515	C	0.692703	0.320945	0.007933
516	N	0.71016	0.356529	0.008066
517	C	0.824017	0.135978	0.010118
518	N	0.859608	0.15511	0.010051
519	C	0.877461	0.190728	0.010118
520	N	0.85833	0.207187	0.010051
521	C	0.822712	0.189423	0.010119
522	N	0.806254	0.153832	0.010052
523	C	0.803523	0.207601	0.010787
524	C	0.772023	0.195428	0.035837
525	C	0.754241	0.214762	0.035386
526	C	0.766781	0.245992	0.010363
527	C	0.797921	0.257747	0.318773
528	C	0.816129	0.23912	0.319424
529	H	0.807946	0.280399	0.300447
530	H	0.838598	0.248639	0.300788
531	C	0.748628	0.265229	0.010657
532	C	0.743811	0.279815	0.050898
533	C	0.725475	0.298591	0.049347
534	C	0.711255	0.302589	0.008714
535	C	0.71593	0.287853	0.302349
536	C	0.734676	0.269763	0.303262
537	H	0.722256	0.309151	0.07845
538	H	0.705953	0.290417	0.272355
539	H	0.737513	0.259307	0.273834
540	H	0.731655	0.205709	0.053664
541	N	0.758119	0.276116	0.091835
542	N	0.759337	0.164912	0.06263
543	O	0.734681	0.260096	0.120839
544	O	0.729186	0.141836	0.050652
545	O	0.78032	0.305333	0.107607
546	O	0.758744	0.171508	0.10371
547	C	0.805839	0.098611	0.010788
548	C	0.818012	0.079285	0.035837
549	C	0.798678	0.042167	0.035386
550	C	0.767449	0.023478	0.010362
551	C	0.755693	0.042863	0.318773
552	C	0.774319	0.079698	0.319425
553	H	0.733041	0.030237	0.300446
554	H	0.764801	0.092648	0.300788
555	C	0.748211	0.486088	0.010657
556	C	0.733624	0.466685	0.050897
557	C	0.714849	0.429574	0.049346
558	C	0.710851	0.411356	0.008714
559	C	0.725587	0.430767	0.302348
560	C	0.743676	0.467601	0.303262
561	H	0.704288	0.415793	0.07845
562	H	0.723023	0.418224	0.272355
563	H	0.754134	0.480895	0.273834
564	H	0.80773	0.028636	0.053663
565	N	0.737323	0.484691	0.091834
566	N	0.848529	0.097113	0.06263
567	O	0.753343	0.477274	0.120839
568	O	0.871605	0.090041	0.050651
569	O	0.708105	0.977676	0.107606
570	O	0.841933	0.089926	0.103709
571	C	0.914828	0.209917	0.010785
572	C	0.934155	0.241416	0.035837
573	C	0.971273	0.259199	0.035386
574	C	0.989962	0.246659	0.010362
575	C	0.970578	0.215519	0.318772
576	C	0.933742	0.197311	0.319423
577	H	0.983202	0.205492	0.300446
578	H	0.920793	0.174843	0.300786
579	C	0.52735	0.26481	0.010657
580	C	0.546755	0.269627	0.050897
581	C	0.583866	0.287963	0.049346
582	C	0.602085	0.302186	0.008714
583	C	0.582674	0.29751	0.302349
584	C	0.545838	0.278763	0.303262
585	H	0.597645	0.291181	0.07845
586	H	0.595215	0.307489	0.272356
587	H	0.532544	0.275927	0.273834
588	H	0.984803	0.281783	0.053665
589	N	0.528747	0.255318	0.091834
590	N	0.916326	0.254103	0.06263
591	O	0.536164	0.278753	0.120839
592	O	0.9234	0.284253	0.050654
593	O	0.923514	0.254693	0.10371
594	C	0.692493	0.374448	0.341264
595	N	0.656909	0.356319	0.341399
596	C	0.638992	0.320736	0.341267
597	N	0.657119	0.303279	0.341399
598	C	0.692703	0.320945	0.341267
599	N	0.71016	0.356529	0.341399
600	C	0.824017	0.135978	0.343451
601	N	0.859608	0.15511	0.343383
602	C	0.877461	0.190728	0.343451
603	N	0.85833	0.207187	0.343383
604	C	0.822712	0.189423	0.343451
605	N	0.806254	0.153832	0.343387
606	C	0.803523	0.207601	0.344121
607	C	0.772023	0.195428	0.369171
608	C	0.754241	0.214762	0.36872
609	C	0.766781	0.245992	0.343697
610	C	0.797921	0.257747	0.652108
611	C	0.816129	0.23912	0.652758
612	H	0.807946	0.280399	0.63378
613	H	0.838598	0.248639	0.63412
614	C	0.748628	0.265229	0.34399
615	C	0.743811	0.279815	0.384231
616	C	0.725475	0.298591	0.382681
617	C	0.711255	0.302589	0.342049
618	C	0.71593	0.287853	0.635683
619	C	0.734676	0.269763	0.636596
620	H	0.722256	0.309151	0.411784
621	H	0.705953	0.290417	0.605687
622	H	0.737513	0.259307	0.607166
623	H	0.731655	0.205709	0.386997
624	N	0.758119	0.276116	0.42517
625	N	0.759337	0.164912	0.395963
626	O	0.734681	0.260096	0.454172
627	O	0.729186	0.141836	0.383985
628	O	0.78032	0.305333	0.440941
629	O	0.758744	0.171508	0.437043
630	C	0.805839	0.098611	0.344121
631	C	0.818012	0.079285	0.369171
632	C	0.798678	0.042167	0.36872
633	C	0.767449	0.023478	0.343697
634	C	0.755693	0.042863	0.652108
635	C	0.774319	0.079698	0.652758
636	H	0.733041	0.030237	0.63378
637	H	0.764801	0.092648	0.63412
638	C	0.748211	0.486088	0.34399
639	C	0.733624	0.466685	0.384231
640	C	0.714849	0.429574	0.382678
641	C	0.710851	0.411356	0.342046
642	C	0.725587	0.430767	0.635683
643	C	0.743676	0.467601	0.636596
644	H	0.704288	0.415793	0.411784
645	H	0.723023	0.418224	0.605687
646	H	0.754134	0.480895	0.607166
647	H	0.80773	0.028636	0.386997
648	N	0.737323	0.484691	0.425167
649	N	0.848529	0.097113	0.395963
650	O	0.753343	0.477274	0.454172
651	O	0.871605	0.090041	0.383985
652	O	0.708105	0.977676	0.440938
653	O	0.841933	0.089926	0.437043
654	C	0.914828	0.209917	0.344118
655	C	0.934155	0.241416	0.369171
656	C	0.971273	0.259199	0.36872
657	C	0.989962	0.246659	0.343697
658	C	0.970578	0.215519	0.652104
659	C	0.933742	0.197311	0.652758
660	H	0.983202	0.205492	0.63378
661	H	0.920793	0.174843	0.63412
662	C	0.52735	0.26481	0.34399
663	C	0.546755	0.269627	0.384231
664	C	0.583866	0.287963	0.382678
665	C	0.602085	0.302186	0.342049
666	C	0.582674	0.29751	0.635683
667	C	0.545838	0.278763	0.636596
668	H	0.597645	0.291181	0.411784
669	H	0.595215	0.307489	0.605691
670	H	0.532544	0.275927	0.60717
671	H	0.984803	0.281783	0.386997
672	N	0.528747	0.255318	0.425167
673	N	0.916326	0.254103	0.395963
674	O	0.536164	0.278753	0.454172
675	O	0.9234	0.284253	0.383989
676	O	0.923514	0.254693	0.437043
677	C	0.692493	0.374448	0.6746
678	N	0.656909	0.356319	0.674732
679	C	0.638992	0.320736	0.6746
680	N	0.657119	0.303279	0.674735
681	C	0.692703	0.320945	0.6746
682	N	0.71016	0.356529	0.674732
683	C	0.824017	0.135978	0.676787
684	N	0.859608	0.15511	0.67672
685	C	0.877461	0.190728	0.676784
686	N	0.85833	0.207187	0.67672
687	C	0.822712	0.189423	0.676787
688	N	0.806254	0.153832	0.67672
689	C	0.803523	0.207601	0.677454
690	C	0.772023	0.195428	0.702504
691	C	0.754241	0.214762	0.702053
692	C	0.766781	0.245992	0.67703
693	C	0.797921	0.257747	0.985441
694	C	0.816129	0.23912	0.986091
695	H	0.807946	0.280399	0.967113
696	H	0.838598	0.248639	0.967456
697	C	0.748628	0.265229	0.677326
698	C	0.743811	0.279815	0.717564
699	C	0.725475	0.298591	0.716014
700	C	0.711255	0.302589	0.675382
701	C	0.71593	0.287853	0.969016
702	C	0.734676	0.269763	0.969929
703	H	0.722256	0.309151	0.745117
704	H	0.705953	0.290417	0.939024
705	H	0.737513	0.259307	0.940503
706	H	0.731655	0.205709	0.72033
707	N	0.758119	0.276116	0.758503
708	N	0.759337	0.164912	0.729296
709	O	0.734681	0.260096	0.787505
710	O	0.729186	0.141836	0.717318
711	O	0.78032	0.305333	0.774274
712	O	0.758744	0.171508	0.770376
713	C	0.805839	0.098611	0.677454
714	C	0.818012	0.079285	0.702504
715	C	0.798678	0.042167	0.702053
716	C	0.767449	0.023478	0.67703
717	C	0.755693	0.042863	0.985441
718	C	0.774319	0.079698	0.986091
719	H	0.733041	0.030237	0.967113
720	H	0.764801	0.092648	0.967456
721	C	0.748211	0.486088	0.677323
722	C	0.733624	0.466685	0.717564
723	C	0.714849	0.429574	0.716014
724	C	0.710851	0.411356	0.675382
725	C	0.725587	0.430767	0.969016
726	C	0.743676	0.467601	0.969929
727	H	0.704288	0.415793	0.745117
728	H	0.723023	0.418224	0.939024
729	H	0.754134	0.480895	0.940503
730	H	0.80773	0.028636	0.72033
731	N	0.737323	0.484691	0.758503
732	N	0.848529	0.097113	0.729296
733	O	0.753343	0.477274	0.787505
734	O	0.871605	0.090041	0.717318
735	O	0.708105	0.977676	0.774274
736	O	0.841933	0.089926	0.770376
737	C	0.914828	0.209917	0.677454
738	C	0.934155	0.241416	0.702504
739	C	0.971273	0.259199	0.702053
740	C	0.989962	0.246659	0.67703
741	C	0.970578	0.215519	0.985441
742	C	0.933742	0.197311	0.986091
743	H	0.983202	0.205492	0.967113
744	H	0.920793	0.174843	0.967453
745	C	0.52735	0.26481	0.677323
746	C	0.546755	0.269627	0.717564
747	C	0.583866	0.287963	0.716014
748	C	0.602085	0.302186	0.675382
749	C	0.582674	0.29751	0.969016
750	C	0.545838	0.278763	0.969929
751	H	0.597645	0.291181	0.745117
752	H	0.595215	0.307489	0.939024
753	H	0.532544	0.275927	0.940503
754	H	0.984803	0.281783	0.72033
755	N	0.528747	0.255318	0.7585
756	N	0.916326	0.254103	0.729296
757	O	0.536164	0.278753	0.787505
758	O	0.9234	0.284253	0.717322
759	O	0.923514	0.254693	0.770376
760	C	0.692493	0.874448	0.007932
761	N	0.656909	0.856319	0.008066
762	C	0.638992	0.820736	0.007933
763	N	0.657119	0.803279	0.008067
764	C	0.692703	0.820945	0.007933
765	N	0.71016	0.856528	0.008066
766	C	0.824016	0.635978	0.010118
767	N	0.859606	0.655109	0.010051
768	C	0.87746	0.690726	0.010118
769	N	0.858329	0.707186	0.010051
770	C	0.822712	0.689423	0.010119
771	N	0.806252	0.653832	0.010052
772	C	0.803524	0.707602	0.010787
773	C	0.772022	0.695428	0.035837
774	C	0.75424	0.714761	0.035386
775	C	0.76678	0.74599	0.010363
776	C	0.79792	0.757746	0.318773
777	C	0.816128	0.739119	0.319424
778	H	0.807946	0.780399	0.300447
779	H	0.838595	0.748638	0.300788
780	C	0.748628	0.765229	0.010657
781	C	0.74381	0.779815	0.050898
782	C	0.725473	0.79859	0.049347
783	C	0.711255	0.802588	0.008714
784	C	0.71593	0.787853	0.302349
785	C	0.734676	0.769763	0.303262
786	H	0.722256	0.80915	0.07845
787	H	0.705953	0.790417	0.272355
788	H	0.737513	0.759308	0.273834
789	H	0.731654	0.705708	0.053664
790	N	0.758119	0.776115	0.091835
791	N	0.759337	0.664913	0.06263
792	O	0.73468	0.760095	0.120839
793	O	0.729186	0.641836	0.050652
794	O	0.78032	0.805333	0.107607
795	O	0.758744	0.671509	0.10371
796	C	0.805838	0.59861	0.010788
797	C	0.818012	0.579285	0.035837
798	C	0.798677	0.542166	0.035386
799	C	0.767447	0.523477	0.010362
800	C	0.755693	0.542862	0.318773
801	C	0.774319	0.579698	0.319425
802	H	0.733041	0.530238	0.300446
803	H	0.764801	0.592647	0.300788
804	C	0.748211	0.986088	0.010657
805	C	0.733623	0.966682	0.050897
806	C	0.714849	0.929574	0.049346
807	C	0.71085	0.911353	0.008714
808	C	0.725587	0.930767	0.302348
809	C	0.743676	0.967601	0.303261
810	H	0.704288	0.915793	0.07845
811	H	0.723023	0.918224	0.272355
812	H	0.754134	0.980895	0.273834
813	H	0.80773	0.528634	0.053663
814	N	0.737323	0.984691	0.091834
815	N	0.848527	0.597113	0.06263
816	O	0.753343	0.977273	0.120839
817	O	0.871603	0.590041	0.050651
818	O	0.708107	0.477677	0.107606
819	O	0.841933	0.589926	0.103709
820	C	0.914827	0.709915	0.010785
821	C	0.934156	0.741417	0.035837
822	C	0.971272	0.759198	0.035386
823	C	0.989962	0.74666	0.010362
824	C	0.970576	0.715519	0.318772
825	C	0.933741	0.697309	0.319423
826	H	0.983202	0.705491	0.300446
827	H	0.920792	0.674842	0.300786
828	C	0.52735	0.76481	0.010657
829	C	0.546755	0.769627	0.050897
830	C	0.583866	0.787963	0.049346
831	C	0.602084	0.802183	0.008714
832	C	0.582672	0.79751	0.302349
833	C	0.545838	0.778763	0.303262
834	H	0.597645	0.791181	0.07845
835	H	0.595215	0.807489	0.272356
836	H	0.532543	0.775927	0.273834
837	H	0.984803	0.781783	0.053665
838	N	0.528747	0.755318	0.091834
839	N	0.916325	0.754101	0.06263
840	O	0.536164	0.778753	0.120839
841	O	0.9234	0.784253	0.050654
842	O	0.923514	0.754692	0.10371
843	C	0.692493	0.874448	0.341264
844	N	0.656909	0.856319	0.341399
845	C	0.638992	0.820736	0.341267
846	N	0.657119	0.803279	0.341399
847	C	0.692703	0.820945	0.341267
848	N	0.71016	0.856528	0.341399
849	C	0.824016	0.635978	0.343451
850	N	0.859606	0.655109	0.343383
851	C	0.87746	0.690726	0.343451
852	N	0.858329	0.707186	0.343383
853	C	0.822712	0.689423	0.343451
854	N	0.806252	0.653832	0.343387
855	C	0.803524	0.707602	0.344121
856	C	0.772022	0.695428	0.369171
857	C	0.75424	0.714761	0.36872
858	C	0.76678	0.74599	0.343697
859	C	0.79792	0.757746	0.652108
860	C	0.816128	0.739119	0.652758
861	H	0.807946	0.780399	0.63378
862	H	0.838595	0.748638	0.63412
863	C	0.748628	0.765229	0.34399
864	C	0.74381	0.779815	0.384231
865	C	0.725473	0.79859	0.382681
866	C	0.711255	0.802588	0.342049
867	C	0.71593	0.787853	0.635683
868	C	0.734676	0.769763	0.636596
869	H	0.722256	0.80915	0.411784
870	H	0.705953	0.790417	0.605687
871	H	0.737513	0.759308	0.607166
872	H	0.731654	0.705708	0.386997
873	N	0.758119	0.776115	0.42517
874	N	0.759337	0.664913	0.395963
875	O	0.73468	0.760095	0.454172
876	O	0.729186	0.641836	0.383985
877	O	0.78032	0.805333	0.440941
878	O	0.758744	0.671509	0.437043
879	C	0.805838	0.59861	0.344121
880	C	0.818012	0.579285	0.369171
881	C	0.798677	0.542166	0.36872
882	C	0.767447	0.523477	0.343697
883	C	0.755693	0.542862	0.652108
884	C	0.774319	0.579698	0.652758
885	H	0.733041	0.530238	0.63378
886	H	0.764801	0.592647	0.63412
887	C	0.748211	0.986088	0.34399
888	C	0.733623	0.966682	0.384231
889	C	0.714849	0.929574	0.382678
890	C	0.71085	0.911353	0.342046
891	C	0.725587	0.930767	0.635683
892	C	0.743676	0.967601	0.636596
893	H	0.704288	0.915793	0.411784
894	H	0.723023	0.918224	0.605687
895	H	0.754134	0.980895	0.607166
896	H	0.80773	0.528634	0.386997
897	N	0.737323	0.984691	0.425167
898	N	0.848527	0.597113	0.395963
899	O	0.753343	0.977273	0.454172
900	O	0.871603	0.590041	0.383985
901	O	0.708107	0.477677	0.440938
902	O	0.841933	0.589926	0.437043
903	C	0.914827	0.709915	0.344118
904	C	0.934156	0.741417	0.369171
905	C	0.971272	0.759198	0.36872
906	C	0.989962	0.74666	0.343697
907	C	0.970576	0.715519	0.652104
908	C	0.933741	0.697309	0.652758
909	H	0.983202	0.705491	0.63378
910	H	0.920792	0.674842	0.63412
911	C	0.52735	0.76481	0.34399
912	C	0.546755	0.769627	0.384231
913	C	0.583866	0.787963	0.382678
914	C	0.602084	0.802183	0.342049
915	C	0.582672	0.79751	0.635683
916	C	0.545838	0.778763	0.636596
917	H	0.597645	0.791181	0.411784
918	H	0.595215	0.807489	0.605691
919	H	0.532543	0.775927	0.60717
920	H	0.984803	0.781783	0.386997
921	N	0.528747	0.755318	0.425167
922	N	0.916325	0.754101	0.395963
923	O	0.536164	0.778753	0.454172
924	O	0.9234	0.784253	0.383989
925	O	0.923514	0.754692	0.437043
926	C	0.692493	0.874448	0.6746
927	N	0.656909	0.856319	0.674732
928	C	0.638992	0.820736	0.6746
929	N	0.657119	0.803279	0.674735
930	C	0.692703	0.820945	0.6746
931	N	0.71016	0.856528	0.674732
932	C	0.824016	0.635978	0.676787
933	N	0.859606	0.655109	0.67672
934	C	0.87746	0.690726	0.676784
935	N	0.858329	0.707186	0.67672
936	C	0.822712	0.689423	0.676787
937	N	0.806252	0.653832	0.67672
938	C	0.803524	0.707602	0.677454
939	C	0.772022	0.695428	0.702504
940	C	0.75424	0.714761	0.702053
941	C	0.76678	0.74599	0.67703
942	C	0.79792	0.757746	0.985441
943	C	0.816128	0.739119	0.986091
944	H	0.807946	0.780399	0.967113
945	H	0.838595	0.748638	0.967456
946	C	0.748628	0.765229	0.677326
947	C	0.74381	0.779815	0.717564
948	C	0.725473	0.79859	0.716014
949	C	0.711255	0.802588	0.675382
950	C	0.71593	0.787853	0.969016
951	C	0.734676	0.769763	0.969929
952	H	0.722256	0.80915	0.745117
953	H	0.705953	0.790417	0.939024
954	H	0.737513	0.759308	0.940503
955	H	0.731654	0.705708	0.72033
956	N	0.758119	0.776115	0.758503
957	N	0.759337	0.664913	0.729296
958	O	0.73468	0.760095	0.787505
959	O	0.729186	0.641836	0.717318
960	O	0.78032	0.805333	0.774274
961	O	0.758744	0.671509	0.770376
962	C	0.805838	0.59861	0.677454
963	C	0.818012	0.579285	0.702504
964	C	0.798677	0.542166	0.702053
965	C	0.767447	0.523477	0.67703
966	C	0.755693	0.542862	0.985441
967	C	0.774319	0.579698	0.986091
968	H	0.733041	0.530238	0.967113
969	H	0.764801	0.592647	0.967456
970	C	0.748211	0.986088	0.677323
971	C	0.733623	0.966682	0.717564
972	C	0.714849	0.929574	0.716014
973	C	0.71085	0.911353	0.675382
974	C	0.725587	0.930767	0.969016
975	C	0.743676	0.967601	0.969929
976	H	0.704288	0.915793	0.745117
977	H	0.723023	0.918224	0.939024
978	H	0.754134	0.980895	0.940503
979	H	0.80773	0.528634	0.72033
980	N	0.737323	0.984691	0.758503
981	N	0.848527	0.597113	0.729296
982	O	0.753343	0.977273	0.787505
983	O	0.871603	0.590041	0.717318
984	O	0.708107	0.477677	0.774274
985	O	0.841933	0.589926	0.770376
986	C	0.914827	0.709915	0.677454
987	C	0.934156	0.741417	0.702504
988	C	0.971272	0.759198	0.702053
989	C	0.989962	0.74666	0.67703
990	C	0.970576	0.715519	0.985441
991	C	0.933741	0.697309	0.986091
992	H	0.983202	0.705491	0.967113
993	H	0.920792	0.674842	0.967453
994	C	0.52735	0.76481	0.677323
995	C	0.546755	0.769627	0.717564
996	C	0.583866	0.787963	0.716014
997	C	0.602084	0.802183	0.675382
998	C	0.582672	0.79751	0.969016
999	C	0.545838	0.778763	0.969929
1000	H	0.597645	0.791181	0.745117
1001	H	0.595215	0.807489	0.939024
1002	H	0.532543	0.775927	0.940503
1003	H	0.984803	0.781783	0.72033
1004	N	0.528747	0.755318	0.7585
1005	N	0.916325	0.754101	0.729296
1006	O	0.536164	0.778753	0.787505
1007	O	0.9234	0.784253	0.717322
1008	O	0.923514	0.754692	0.770376
