data_C864H216N288O72_2018-02-15_10:35:34
#******************************************
#
# CIF file created by Zeo++
# Zeo++ is an open source package to
# analyze microporous materials
#
#*******************************************

_cell_length_a		46.5407   
_cell_length_b		46.5407   
_cell_length_c		29.6548   
_cell_angle_alpha		90   
_cell_angle_beta		90   
_cell_angle_gamma		120   

_symmetry_space_group_name_H-M		'P1'
_symmetry_Int_Tables_number		1
_symmetry_cell_setting		Monoclinic

loop_
_symmetry_equiv_pos_as_xyz
'+x,+y,+z'

loop_
_atom_site_label
_atom_site_type_symbol
_atom_site_fract_x
_atom_site_fract_y
_atom_site_fract_z
1	C	0.026753	0.264783	0.3387
2	C	0.046081	0.300332	0.339533
3	C	0.081189	0.318356	0.338923
4	C	0.098435	0.300577	0.338478
5	C	0.081136	0.26555	0.004116
6	C	0.046024	0.248507	0.004207
7	H	0.034992	0.314399	0.340697
8	H	0.034885	0.223354	0.002734
9	C	0.117482	0.250286	0.295911
10	C	0.099845	0.249123	0.002319
11	N	0.114746	0.248914	0.041766
12	C	0.109586	0.255397	0.25577
13	N	0.102627	0.260059	0.220462
14	C	0.099939	0.353513	0.005607
15	N	0.116073	0.36735	0.299624
16	C	0.116176	0.371414	0.045287
17	C	0.107223	0.359547	0.085853
18	N	0.099406	0.348863	0.12154
19	C	0.026753	0.264783	0.672032
20	C	0.046081	0.300332	0.672868
21	C	0.081189	0.318356	0.672255
22	C	0.098435	0.300577	0.671813
23	C	0.081136	0.26555	0.337449
24	C	0.046024	0.248507	0.33754
25	H	0.034992	0.314399	0.674032
26	H	0.034885	0.223354	0.336065
27	C	0.117482	0.250286	0.629243
28	C	0.099845	0.249123	0.33565
29	N	0.114746	0.248914	0.375099
30	C	0.109586	0.255397	0.589105
31	N	0.102627	0.260059	0.553795
32	C	0.099939	0.353513	0.33894
33	N	0.116073	0.36735	0.632956
34	C	0.116176	0.371414	0.37862
35	C	0.107223	0.359547	0.419186
36	N	0.099406	0.348863	0.454874
37	C	0.026753	0.264783	0.005367
38	C	0.046081	0.300332	0.006201
39	C	0.081189	0.318356	0.00559
40	C	0.098435	0.300577	0.005145
41	C	0.081136	0.26555	0.670785
42	C	0.046024	0.248507	0.670876
43	H	0.034992	0.314399	0.007363
44	H	0.034885	0.223354	0.669399
45	C	0.117482	0.250286	0.962578
46	C	0.099845	0.249123	0.668984
47	N	0.114746	0.248914	0.708434
48	C	0.109586	0.255397	0.922437
49	N	0.102627	0.260059	0.88713
50	C	0.099939	0.353513	0.672275
51	N	0.116073	0.36735	0.966291
52	C	0.116176	0.371414	0.711955
53	C	0.107223	0.359547	0.752522
54	N	0.099406	0.348863	0.788206
55	C	0.026753	0.764782	0.3387
56	C	0.046081	0.800331	0.339533
57	C	0.08119	0.818358	0.338923
58	C	0.098435	0.800577	0.338478
59	C	0.081136	0.765549	0.004116
60	C	0.046025	0.748507	0.004207
61	H	0.034994	0.814401	0.340697
62	H	0.034886	0.723354	0.002734
63	C	0.117482	0.750288	0.295911
64	C	0.099845	0.749122	0.002319
65	N	0.114745	0.748914	0.041766
66	C	0.109585	0.755397	0.25577
67	N	0.102627	0.760061	0.220462
68	C	0.09994	0.853512	0.005607
69	N	0.116074	0.867349	0.299624
70	C	0.116176	0.871413	0.045287
71	C	0.107222	0.859546	0.085853
72	N	0.099405	0.848863	0.12154
73	C	0.026753	0.764782	0.672032
74	C	0.046081	0.800331	0.672868
75	C	0.08119	0.818358	0.672255
76	C	0.098435	0.800577	0.671813
77	C	0.081136	0.765549	0.337449
78	C	0.046025	0.748507	0.33754
79	H	0.034994	0.814401	0.674032
80	H	0.034886	0.723354	0.336065
81	C	0.117482	0.750288	0.629243
82	C	0.099845	0.749122	0.33565
83	N	0.114745	0.748914	0.375099
84	C	0.109585	0.755397	0.589105
85	N	0.102627	0.760061	0.553795
86	C	0.09994	0.853512	0.33894
87	N	0.116074	0.867349	0.632956
88	C	0.116176	0.871413	0.37862
89	C	0.107222	0.859546	0.419186
90	N	0.099405	0.848863	0.454874
91	C	0.026753	0.764782	0.005367
92	C	0.046081	0.800331	0.006201
93	C	0.08119	0.818358	0.00559
94	C	0.098435	0.800577	0.005145
95	C	0.081136	0.765549	0.670785
96	C	0.046025	0.748507	0.670876
97	H	0.034994	0.814401	0.007363
98	H	0.034886	0.723354	0.669399
99	C	0.117482	0.750288	0.962578
100	C	0.099845	0.749122	0.668984
101	N	0.114745	0.748914	0.708434
102	C	0.109585	0.755397	0.922437
103	N	0.102627	0.760061	0.88713
104	C	0.09994	0.853512	0.672275
105	N	0.116074	0.867349	0.966291
106	C	0.116176	0.871413	0.711955
107	C	0.107222	0.859546	0.752522
108	N	0.099405	0.848863	0.788206
109	O	0.132324	0.317513	0.338552
110	H	0.138886	0.320058	0.037137
111	C	0.196115	0.265627	0.33896
112	H	0.200131	0.223416	0.34095
113	O	0.196925	0.317595	0.338721
114	H	0.194394	0.321577	0.037324
115	C	0.196039	0.433477	0.003978
116	O	0.196787	0.382278	0.338205
117	H	0.192837	0.375646	0.036768
118	H	0.200132	0.479737	0.002336
119	C	0.160949	0.24915	0.005987
120	N	0.147263	0.25172	0.300005
121	C	0.143074	0.247377	0.045697
122	C	0.154966	0.250051	0.08619
123	N	0.165668	0.252708	0.121827
124	C	0.144354	0.397177	0.29546
125	C	0.160914	0.41484	0.001753
126	N	0.145982	0.399802	0.041264
127	C	0.157328	0.405223	0.255332
128	N	0.168927	0.412311	0.220022
129	O	0.132324	0.317513	0.671887
130	H	0.138886	0.320058	0.370469
131	C	0.196115	0.265627	0.672292
132	H	0.200131	0.223416	0.674285
133	O	0.196925	0.317595	0.672052
134	H	0.194394	0.321577	0.370658
135	C	0.196039	0.433477	0.337311
136	O	0.196787	0.382278	0.67154
137	H	0.192837	0.375646	0.370102
138	H	0.200132	0.479737	0.335667
139	C	0.160949	0.24915	0.339321
140	N	0.147263	0.25172	0.63334
141	C	0.143074	0.247377	0.379031
142	C	0.154966	0.250051	0.419524
143	N	0.165668	0.252708	0.45516
144	C	0.144354	0.397177	0.628795
145	C	0.160914	0.41484	0.335087
146	N	0.145982	0.399802	0.374597
147	C	0.157328	0.405223	0.588666
148	N	0.168927	0.412311	0.553357
149	O	0.132324	0.317513	0.005219
150	H	0.138886	0.320058	0.703804
151	C	0.196115	0.265627	0.005627
152	H	0.200131	0.223416	0.007616
153	O	0.196925	0.317595	0.005388
154	H	0.194394	0.321577	0.70399
155	C	0.196039	0.433477	0.670643
156	O	0.196787	0.382278	0.004872
157	H	0.192837	0.375646	0.703437
158	H	0.200132	0.479737	0.669001
159	C	0.160949	0.24915	0.672656
160	N	0.147263	0.25172	0.966672
161	C	0.143074	0.247377	0.712366
162	C	0.154966	0.250051	0.752859
163	N	0.165668	0.252708	0.788496
164	C	0.144354	0.397177	0.962127
165	C	0.160914	0.41484	0.668421
166	N	0.145982	0.399802	0.707932
167	C	0.157328	0.405223	0.921998
168	N	0.168927	0.412311	0.886689
169	O	0.132324	0.817512	0.338552
170	H	0.138886	0.820058	0.037137
171	C	0.196116	0.765626	0.33896
172	H	0.200131	0.723416	0.34095
173	O	0.196925	0.817594	0.338721
174	H	0.194393	0.821576	0.037324
175	C	0.19604	0.933479	0.003978
176	O	0.196788	0.882278	0.338205
177	H	0.192836	0.875646	0.036768
178	H	0.200135	0.979738	0.002336
179	C	0.16095	0.749152	0.005987
180	N	0.147263	0.75172	0.300005
181	C	0.143074	0.747378	0.045697
182	C	0.154967	0.75005	0.08619
183	N	0.16567	0.75271	0.121827
184	C	0.144354	0.897176	0.29546
185	C	0.160914	0.914839	0.001753
186	N	0.145984	0.899804	0.041264
187	C	0.157329	0.905222	0.255332
188	N	0.168929	0.912313	0.220022
189	O	0.132324	0.817512	0.671887
190	H	0.138886	0.820058	0.370469
191	C	0.196116	0.765626	0.672292
192	H	0.200131	0.723416	0.674285
193	O	0.196925	0.817594	0.672052
194	H	0.194393	0.821576	0.370658
195	C	0.19604	0.933479	0.337311
196	O	0.196788	0.882278	0.67154
197	H	0.192836	0.875646	0.370102
198	H	0.200135	0.979738	0.335667
199	C	0.16095	0.749152	0.339321
200	N	0.147263	0.75172	0.63334
201	C	0.143074	0.747378	0.379031
202	C	0.154967	0.75005	0.419524
203	N	0.16567	0.75271	0.45516
204	C	0.144354	0.897176	0.628795
205	C	0.160914	0.914839	0.335087
206	N	0.145984	0.899804	0.374597
207	C	0.157329	0.905222	0.588666
208	N	0.168929	0.912313	0.553357
209	O	0.132324	0.817512	0.005219
210	H	0.138886	0.820058	0.703804
211	C	0.196116	0.765626	0.005627
212	H	0.200131	0.723416	0.007616
213	O	0.196925	0.817594	0.005388
214	H	0.194393	0.821576	0.70399
215	C	0.19604	0.933479	0.670643
216	O	0.196788	0.882278	0.004872
217	H	0.192836	0.875646	0.703437
218	H	0.200135	0.979738	0.669001
219	C	0.16095	0.749152	0.672656
220	N	0.147263	0.75172	0.966672
221	C	0.143074	0.747378	0.712366
222	C	0.154967	0.75005	0.752859
223	N	0.16567	0.75271	0.788496
224	C	0.144354	0.897176	0.962127
225	C	0.160914	0.914839	0.668421
226	N	0.145984	0.899804	0.707932
227	C	0.157329	0.905222	0.921998
228	N	0.168929	0.912313	0.886689
229	C	0.249714	0.264818	0.338609
230	C	0.214169	0.248572	0.339614
231	C	0.213877	0.300659	0.338542
232	C	0.248902	0.318406	0.004056
233	C	0.265963	0.300359	0.003971
234	C	0.267728	0.2468	0.338603
235	C	0.251485	0.211259	0.004012
236	C	0.268557	0.19322	0.004008
237	H	0.226338	0.197229	0.002383
238	C	0.249677	0.48785	0.338653
239	C	0.265886	0.468517	0.339624
240	C	0.248788	0.43341	0.338866
241	C	0.213759	0.41617	0.338269
242	C	0.214132	0.468589	0.004002
243	C	0.267737	0.023883	0.338663
244	C	0.26859	0.078309	0.33899
245	C	0.251517	0.043204	0.339665
246	H	0.226364	0.032106	0.341027
247	C	0.26518	0.414649	0.00561
248	N	0.26277	0.398383	0.299716
249	C	0.264193	0.370032	0.295727
250	C	0.265326	0.353525	0.002107
251	N	0.265413	0.368685	0.041476
252	C	0.266906	0.398529	0.045375
253	C	0.264196	0.407707	0.085887
254	C	0.259326	0.357058	0.25559
255	N	0.25487	0.345469	0.220279
256	N	0.261505	0.415706	0.121537
257	C	0.252117	0.096989	0.006074
258	N	0.25475	0.11327	0.300059
259	C	0.253338	0.141618	0.295792
260	C	0.252128	0.158078	0.002144
261	N	0.251912	0.143086	0.041691
262	C	0.250378	0.113225	0.045672
263	C	0.253046	0.104048	0.086191
264	C	0.258527	0.154611	0.25564
265	N	0.263258	0.16622	0.220318
266	N	0.255699	0.096037	0.121852
267	C	0.249714	0.264818	0.671941
268	C	0.214169	0.248572	0.672949
269	C	0.213877	0.300659	0.671877
270	C	0.248902	0.318406	0.337389
271	C	0.265963	0.300359	0.337304
272	C	0.267728	0.2468	0.671938
273	C	0.251485	0.211259	0.337345
274	C	0.268557	0.19322	0.337341
275	H	0.226338	0.197229	0.335717
276	C	0.249677	0.48785	0.671985
277	C	0.265886	0.468517	0.67296
278	C	0.248788	0.43341	0.672197
279	C	0.213759	0.41617	0.671604
280	C	0.214132	0.468589	0.337331
281	C	0.267737	0.023883	0.671995
282	C	0.26859	0.078309	0.672322
283	C	0.251517	0.043204	0.672997
284	H	0.226364	0.032106	0.674359
285	C	0.26518	0.414649	0.338943
286	N	0.26277	0.398383	0.63305
287	C	0.264193	0.370032	0.629061
288	C	0.265326	0.353525	0.335439
289	N	0.265413	0.368685	0.374809
290	C	0.266906	0.398529	0.378707
291	C	0.264196	0.407707	0.41922
292	C	0.259326	0.357058	0.588923
293	N	0.25487	0.345469	0.553613
294	N	0.261505	0.415706	0.45487
295	C	0.252117	0.096989	0.339408
296	N	0.25475	0.11327	0.633394
297	C	0.253338	0.141618	0.629125
298	C	0.252128	0.158078	0.335477
299	N	0.251912	0.143086	0.375025
300	C	0.250378	0.113225	0.379007
301	C	0.253046	0.104048	0.419524
302	C	0.258527	0.154611	0.588973
303	N	0.263258	0.16622	0.553654
304	N	0.255699	0.096037	0.455184
305	C	0.249714	0.264818	0.005276
306	C	0.214169	0.248572	0.006282
307	C	0.213877	0.300659	0.005209
308	C	0.248902	0.318406	0.670724
309	C	0.265963	0.300359	0.670636
310	C	0.267728	0.2468	0.00527
311	C	0.251485	0.211259	0.670677
312	C	0.268557	0.19322	0.670677
313	H	0.226338	0.197229	0.669051
314	C	0.249677	0.48785	0.00532
315	C	0.265886	0.468517	0.006292
316	C	0.248788	0.43341	0.005533
317	C	0.213759	0.41617	0.004936
318	C	0.214132	0.468589	0.670666
319	C	0.267737	0.023883	0.00533
320	C	0.26859	0.078309	0.005657
321	C	0.251517	0.043204	0.00633
322	H	0.226364	0.032106	0.007693
323	C	0.26518	0.414649	0.672278
324	N	0.26277	0.398383	0.966382
325	C	0.264193	0.370032	0.962393
326	C	0.265326	0.353525	0.668775
327	N	0.265413	0.368685	0.708144
328	C	0.266906	0.398529	0.712043
329	C	0.264196	0.407707	0.752555
330	C	0.259326	0.357058	0.922258
331	N	0.25487	0.345469	0.886948
332	N	0.261505	0.415706	0.788206
333	C	0.252117	0.096989	0.67274
334	N	0.25475	0.11327	0.966726
335	C	0.253338	0.141618	0.96246
336	C	0.252128	0.158078	0.668812
337	N	0.251912	0.143086	0.70836
338	C	0.250378	0.113225	0.712339
339	C	0.253046	0.104048	0.752859
340	C	0.258527	0.154611	0.922308
341	N	0.263258	0.16622	0.886985
342	N	0.255699	0.096037	0.788519
343	C	0.249714	0.764817	0.338609
344	C	0.214169	0.748571	0.339614
345	C	0.213877	0.800658	0.338542
346	C	0.248902	0.818405	0.004056
347	C	0.265963	0.800358	0.003971
348	C	0.267728	0.7468	0.338603
349	C	0.251485	0.711259	0.004012
350	C	0.268558	0.693221	0.004008
351	H	0.226338	0.697228	0.002383
352	C	0.249677	0.987849	0.338653
353	C	0.265885	0.968517	0.339624
354	C	0.248787	0.93341	0.338866
355	C	0.21376	0.916169	0.338269
356	C	0.214132	0.968589	0.004002
357	C	0.267738	0.523882	0.338663
358	C	0.26859	0.578309	0.33899
359	C	0.251518	0.543204	0.339665
360	H	0.226365	0.532107	0.341027
361	C	0.265182	0.914651	0.00561
362	N	0.262772	0.898385	0.299716
363	C	0.264193	0.870031	0.295727
364	C	0.265326	0.853525	0.002107
365	N	0.265413	0.868684	0.041476
366	C	0.266907	0.898531	0.045375
367	C	0.264196	0.907706	0.085887
368	C	0.259326	0.857058	0.25559
369	N	0.254871	0.845469	0.220279
370	N	0.261507	0.915707	0.121537
371	C	0.252117	0.596989	0.006074
372	N	0.25475	0.613269	0.300059
373	C	0.253338	0.641618	0.295792
374	C	0.252128	0.658077	0.002144
375	N	0.251913	0.643087	0.041691
376	C	0.250378	0.613225	0.045672
377	C	0.253046	0.604047	0.086191
378	C	0.258528	0.654611	0.25564
379	N	0.263258	0.66622	0.220318
380	N	0.255699	0.596036	0.121852
381	C	0.249714	0.764817	0.671941
382	C	0.214169	0.748571	0.672949
383	C	0.213877	0.800658	0.671877
384	C	0.248902	0.818405	0.337389
385	C	0.265963	0.800358	0.337304
386	C	0.267728	0.7468	0.671938
387	C	0.251485	0.711259	0.337345
388	C	0.268558	0.693221	0.337341
389	H	0.226338	0.697228	0.335717
390	C	0.249677	0.987849	0.671985
391	C	0.265885	0.968517	0.67296
392	C	0.248787	0.93341	0.672197
393	C	0.21376	0.916169	0.671604
394	C	0.214132	0.968589	0.337331
395	C	0.267738	0.523882	0.671995
396	C	0.26859	0.578309	0.672322
397	C	0.251518	0.543204	0.672997
398	H	0.226365	0.532107	0.674359
399	C	0.265182	0.914651	0.338943
400	N	0.262772	0.898385	0.63305
401	C	0.264193	0.870031	0.629061
402	C	0.265326	0.853525	0.335439
403	N	0.265413	0.868684	0.374809
404	C	0.266907	0.898531	0.378707
405	C	0.264196	0.907706	0.41922
406	C	0.259326	0.857058	0.588923
407	N	0.254871	0.845469	0.553613
408	N	0.261507	0.915707	0.45487
409	C	0.252117	0.596989	0.339408
410	N	0.25475	0.613269	0.633394
411	C	0.253338	0.641618	0.629125
412	C	0.252128	0.658077	0.335477
413	N	0.251913	0.643087	0.375025
414	C	0.250378	0.613225	0.379007
415	C	0.253046	0.604047	0.419524
416	C	0.258528	0.654611	0.588973
417	N	0.263258	0.66622	0.553654
418	N	0.255699	0.596036	0.455184
419	C	0.249714	0.764817	0.005276
420	C	0.214169	0.748571	0.006282
421	C	0.213877	0.800658	0.005209
422	C	0.248902	0.818405	0.670724
423	C	0.265963	0.800358	0.670636
424	C	0.267728	0.7468	0.00527
425	C	0.251485	0.711259	0.670677
426	C	0.268558	0.693221	0.670677
427	H	0.226338	0.697228	0.669051
428	C	0.249677	0.987849	0.00532
429	C	0.265885	0.968517	0.006292
430	C	0.248787	0.93341	0.005533
431	C	0.21376	0.916169	0.004936
432	C	0.214132	0.968589	0.670666
433	C	0.267738	0.523882	0.00533
434	C	0.26859	0.578309	0.005657
435	C	0.251518	0.543204	0.00633
436	H	0.226365	0.532107	0.007693
437	C	0.265182	0.914651	0.672278
438	N	0.262772	0.898385	0.966382
439	C	0.264193	0.870031	0.962393
440	C	0.265326	0.853525	0.668775
441	N	0.265413	0.868684	0.708144
442	C	0.266907	0.898531	0.712043
443	C	0.264196	0.907706	0.752555
444	C	0.259326	0.857058	0.922258
445	N	0.254871	0.845469	0.886948
446	N	0.261507	0.915707	0.788206
447	C	0.252117	0.596989	0.67274
448	N	0.25475	0.613269	0.966726
449	C	0.253338	0.641618	0.96246
450	C	0.252128	0.658077	0.668812
451	N	0.251913	0.643087	0.70836
452	C	0.250378	0.613225	0.712339
453	C	0.253046	0.604047	0.752859
454	C	0.258528	0.654611	0.922308
455	N	0.263258	0.66622	0.886985
456	N	0.255699	0.596036	0.788519
457	C	0.490717	0.246795	0.338673
458	C	0.471455	0.263079	0.004049
459	C	0.436346	0.246053	0.003894
460	C	0.419034	0.211025	0.338178
461	C	0.436266	0.19323	0.338775
462	C	0.471378	0.211249	0.339591
463	O	0.385145	0.19411	0.338191
464	H	0.482463	0.197181	0.340906
465	H	0.378554	0.1915	0.036766
466	H	0.482601	0.288229	0.002535
467	C	0.303582	0.210975	0.338501
468	C	0.321333	0.246005	0.33892
469	C	0.303273	0.263051	0.339574
470	O	0.32054	0.194046	0.3387
471	H	0.317308	0.288207	0.340906
472	H	0.323054	0.19006	0.037307
473	H	0.291109	0.314387	0.002319
474	H	0.29104	0.479605	0.340966
475	C	0.303282	0.043157	0.004025
476	C	0.321355	0.078271	0.0041
477	C	0.30362	0.095563	0.338592
478	O	0.320568	0.12945	0.338788
479	H	0.324519	0.135952	0.037399
480	H	0.317291	0.032016	0.002366
481	C	0.356488	0.2625	0.005975
482	N	0.370118	0.259915	0.299931
483	C	0.399864	0.261312	0.295626
484	C	0.417709	0.26253	0.001806
485	N	0.402784	0.262627	0.041329
486	C	0.374497	0.264217	0.045512
487	C	0.362644	0.26126	0.086078
488	C	0.407701	0.256201	0.255462
489	N	0.414609	0.251534	0.220123
490	N	0.351973	0.258352	0.121778
491	C	0.417494	0.158062	0.00562
492	N	0.401253	0.144304	0.299668
493	C	0.372883	0.114538	0.295667
494	C	0.356501	0.096977	0.00213
495	N	0.371571	0.111897	0.041584
496	C	0.401433	0.14025	0.04542
497	C	0.410681	0.152162	0.085905
498	C	0.359862	0.106425	0.255555
499	N	0.348235	0.099285	0.220266
500	N	0.418747	0.162875	0.121533
501	C	0.490717	0.246795	0.672005
502	C	0.471455	0.263079	0.337382
503	C	0.436346	0.246053	0.337227
504	C	0.419034	0.211025	0.671513
505	C	0.436266	0.19323	0.67211
506	C	0.471378	0.211249	0.672922
507	O	0.385145	0.19411	0.671523
508	H	0.482463	0.197181	0.674241
509	H	0.378554	0.1915	0.370098
510	H	0.482601	0.288229	0.335867
511	C	0.303582	0.210975	0.671837
512	C	0.321333	0.246005	0.672255
513	C	0.303273	0.263051	0.672909
514	O	0.32054	0.194046	0.672032
515	H	0.317308	0.288207	0.674241
516	H	0.323054	0.19006	0.370641
517	H	0.291109	0.314387	0.335652
518	H	0.29104	0.479605	0.674302
519	C	0.303282	0.043157	0.337358
520	C	0.321355	0.078271	0.337432
521	C	0.30362	0.095563	0.671928
522	O	0.320568	0.12945	0.672123
523	H	0.324519	0.135952	0.370732
524	H	0.317291	0.032016	0.335698
525	C	0.356488	0.2625	0.339307
526	N	0.370118	0.259915	0.633263
527	C	0.399864	0.261312	0.62896
528	C	0.417709	0.26253	0.335139
529	N	0.402784	0.262627	0.374664
530	C	0.374497	0.264217	0.378846
531	C	0.362644	0.26126	0.419412
532	C	0.407701	0.256201	0.588794
533	N	0.414609	0.251534	0.553458
534	N	0.351973	0.258352	0.455113
535	C	0.417494	0.158062	0.338953
536	N	0.401253	0.144304	0.633003
537	C	0.372883	0.114538	0.629
538	C	0.356501	0.096977	0.335462
539	N	0.371571	0.111897	0.374917
540	C	0.401433	0.14025	0.378755
541	C	0.410681	0.152162	0.41924
542	C	0.359862	0.106425	0.588889
543	N	0.348235	0.099285	0.5536
544	N	0.418747	0.162875	0.454867
545	C	0.490717	0.246795	0.00534
546	C	0.471455	0.263079	0.670714
547	C	0.436346	0.246053	0.670562
548	C	0.419034	0.211025	0.004845
549	C	0.436266	0.19323	0.005442
550	C	0.471378	0.211249	0.006256
551	O	0.385145	0.19411	0.004858
552	H	0.482463	0.197181	0.007572
553	H	0.378554	0.1915	0.703433
554	H	0.482601	0.288229	0.6692
555	C	0.303582	0.210975	0.005169
556	C	0.321333	0.246005	0.005587
557	C	0.303273	0.263051	0.006241
558	O	0.32054	0.194046	0.005367
559	H	0.317308	0.288207	0.007573
560	H	0.323054	0.19006	0.703973
561	H	0.291109	0.314387	0.668984
562	H	0.29104	0.479605	0.007633
563	C	0.303282	0.043157	0.67069
564	C	0.321355	0.078271	0.670764
565	C	0.30362	0.095563	0.00526
566	O	0.320568	0.12945	0.005455
567	H	0.324519	0.135952	0.704067
568	H	0.317291	0.032016	0.669031
569	C	0.356488	0.2625	0.672643
570	N	0.370118	0.259915	0.966598
571	C	0.399864	0.261312	0.962292
572	C	0.417709	0.26253	0.668475
573	N	0.402784	0.262627	0.707996
574	C	0.374497	0.264217	0.712177
575	C	0.362644	0.26126	0.752744
576	C	0.407701	0.256201	0.92213
577	N	0.414609	0.251534	0.88679
578	N	0.351973	0.258352	0.788445
579	C	0.417494	0.158062	0.672285
580	N	0.401253	0.144304	0.966335
581	C	0.372883	0.114538	0.962336
582	C	0.356501	0.096977	0.668795
583	N	0.371571	0.111897	0.708252
584	C	0.401433	0.14025	0.712086
585	C	0.410681	0.152162	0.752572
586	C	0.359862	0.106425	0.922224
587	N	0.348235	0.099285	0.886935
588	N	0.418747	0.162875	0.788202
589	C	0.490717	0.746795	0.338673
590	C	0.471456	0.763078	0.004049
591	C	0.436347	0.746053	0.003894
592	C	0.419035	0.711025	0.338178
593	C	0.436268	0.693231	0.338775
594	C	0.471378	0.711249	0.339591
595	O	0.385145	0.69411	0.338191
596	H	0.482464	0.697181	0.340906
597	H	0.378555	0.6915	0.036766
598	H	0.482602	0.788231	0.002535
599	C	0.303582	0.710976	0.338501
600	C	0.321334	0.746006	0.33892
601	C	0.303273	0.763051	0.339574
602	O	0.32054	0.694048	0.3387
603	H	0.31731	0.788209	0.340906
604	H	0.323056	0.690061	0.037307
605	H	0.291109	0.814386	0.002319
606	H	0.29104	0.979604	0.340966
607	C	0.303283	0.543157	0.004025
608	C	0.321356	0.578272	0.0041
609	C	0.30362	0.595562	0.338592
610	O	0.320568	0.629451	0.338788
611	H	0.32452	0.635951	0.037399
612	H	0.317289	0.532015	0.002366
613	C	0.356489	0.762502	0.005975
614	N	0.370117	0.759915	0.299931
615	C	0.399863	0.761311	0.295626
616	C	0.417709	0.76253	0.001806
617	N	0.402785	0.762629	0.041329
618	C	0.374496	0.764217	0.045512
619	C	0.362645	0.761259	0.086078
620	C	0.407703	0.756203	0.255462
621	N	0.41461	0.751534	0.220123
622	N	0.351972	0.758352	0.121778
623	C	0.417495	0.658062	0.00562
624	N	0.401255	0.644305	0.299668
625	C	0.372883	0.614537	0.295667
626	C	0.356501	0.596976	0.00213
627	N	0.371572	0.611897	0.041584
628	C	0.401433	0.640251	0.04542
629	C	0.410681	0.652162	0.085905
630	C	0.359863	0.606424	0.255555
631	N	0.348236	0.599286	0.220266
632	N	0.418748	0.662876	0.121533
633	C	0.490717	0.746795	0.672005
634	C	0.471456	0.763078	0.337382
635	C	0.436347	0.746053	0.337227
636	C	0.419035	0.711025	0.671513
637	C	0.436268	0.693231	0.67211
638	C	0.471378	0.711249	0.672922
639	O	0.385145	0.69411	0.671523
640	H	0.482464	0.697181	0.674241
641	H	0.378555	0.6915	0.370098
642	H	0.482602	0.788231	0.335867
643	C	0.303582	0.710976	0.671837
644	C	0.321334	0.746006	0.672255
645	C	0.303273	0.763051	0.672909
646	O	0.32054	0.694048	0.672032
647	H	0.31731	0.788209	0.674241
648	H	0.323056	0.690061	0.370641
649	H	0.291109	0.814386	0.335652
650	H	0.29104	0.979604	0.674302
651	C	0.303283	0.543157	0.337358
652	C	0.321356	0.578272	0.337432
653	C	0.30362	0.595562	0.671928
654	O	0.320568	0.629451	0.672123
655	H	0.32452	0.635951	0.370732
656	H	0.317289	0.532015	0.335698
657	C	0.356489	0.762502	0.339307
658	N	0.370117	0.759915	0.633263
659	C	0.399863	0.761311	0.62896
660	C	0.417709	0.76253	0.335139
661	N	0.402785	0.762629	0.374664
662	C	0.374496	0.764217	0.378846
663	C	0.362645	0.761259	0.419412
664	C	0.407703	0.756203	0.588794
665	N	0.41461	0.751534	0.553458
666	N	0.351972	0.758352	0.455113
667	C	0.417495	0.658062	0.338953
668	N	0.401255	0.644305	0.633003
669	C	0.372883	0.614537	0.629
670	C	0.356501	0.596976	0.335462
671	N	0.371572	0.611897	0.374917
672	C	0.401433	0.640251	0.378755
673	C	0.410681	0.652162	0.41924
674	C	0.359863	0.606424	0.588889
675	N	0.348236	0.599286	0.5536
676	N	0.418748	0.662876	0.454867
677	C	0.490717	0.746795	0.00534
678	C	0.471456	0.763078	0.670714
679	C	0.436347	0.746053	0.670562
680	C	0.419035	0.711025	0.004845
681	C	0.436268	0.693231	0.005442
682	C	0.471378	0.711249	0.006256
683	O	0.385145	0.69411	0.004858
684	H	0.482464	0.697181	0.007572
685	H	0.378555	0.6915	0.703433
686	H	0.482602	0.788231	0.6692
687	C	0.303582	0.710976	0.005169
688	C	0.321334	0.746006	0.005587
689	C	0.303273	0.763051	0.006241
690	O	0.32054	0.694048	0.005367
691	H	0.31731	0.788209	0.007572
692	H	0.323056	0.690061	0.703973
693	H	0.291109	0.814386	0.668984
694	H	0.29104	0.979604	0.007633
695	C	0.303283	0.543157	0.67069
696	C	0.321356	0.578272	0.670764
697	C	0.30362	0.595562	0.00526
698	O	0.320568	0.629451	0.005455
699	H	0.32452	0.635951	0.704067
700	H	0.317289	0.532015	0.669031
701	C	0.356489	0.762502	0.672643
702	N	0.370117	0.759915	0.966598
703	C	0.399863	0.761311	0.962292
704	C	0.417709	0.76253	0.668475
705	N	0.402785	0.762629	0.707996
706	C	0.374496	0.764217	0.712177
707	C	0.362645	0.761259	0.752744
708	C	0.407703	0.756203	0.92213
709	N	0.41461	0.751534	0.88679
710	N	0.351972	0.758352	0.788445
711	C	0.417495	0.658062	0.672285
712	N	0.401255	0.644305	0.966335
713	C	0.372883	0.614537	0.962336
714	C	0.356501	0.596976	0.668795
715	N	0.371572	0.611897	0.708252
716	C	0.401433	0.640251	0.712086
717	C	0.410681	0.652162	0.752572
718	C	0.359863	0.606424	0.922224
719	N	0.348236	0.599286	0.886935
720	N	0.418748	0.662876	0.788202
721	C	0.526754	0.264783	0.3387
722	C	0.546082	0.300332	0.339533
723	C	0.58119	0.318356	0.338923
724	C	0.598436	0.300577	0.338478
725	C	0.581138	0.26555	0.004116
726	C	0.546025	0.248507	0.004207
727	H	0.534992	0.314399	0.340697
728	O	0.632325	0.317513	0.338552
729	C	0.990716	0.246795	0.338673
730	C	0.971456	0.263079	0.004049
731	C	0.936347	0.246053	0.003894
732	C	0.919035	0.211025	0.338178
733	C	0.936267	0.19323	0.338775
734	C	0.971379	0.211249	0.339591
735	O	0.885146	0.19411	0.338191
736	H	0.982465	0.197181	0.340906
737	H	0.638886	0.320058	0.037137
738	H	0.878555	0.1915	0.036766
739	H	0.534885	0.223354	0.002734
740	H	0.9826	0.288229	0.002535
741	C	0.749714	0.264818	0.338609
742	C	0.71417	0.248572	0.339614
743	C	0.696116	0.265627	0.33896
744	C	0.713877	0.300659	0.338542
745	C	0.748902	0.318406	0.004056
746	C	0.765963	0.300359	0.003971
747	H	0.700131	0.223416	0.34095
748	O	0.696925	0.317595	0.338721
749	C	0.767729	0.2468	0.338603
750	C	0.751486	0.211259	0.004012
751	C	0.768558	0.19322	0.004008
752	C	0.803582	0.210975	0.338501
753	C	0.821334	0.246005	0.33892
754	C	0.803273	0.263051	0.339574
755	O	0.820541	0.194046	0.3387
756	H	0.817308	0.288207	0.340906
757	H	0.694395	0.321577	0.037324
758	H	0.823056	0.19006	0.037307
759	H	0.79111	0.314387	0.002319
760	H	0.726338	0.197229	0.002383
761	C	0.749678	0.48785	0.338653
762	C	0.765886	0.468517	0.339624
763	C	0.748788	0.43341	0.338866
764	C	0.713759	0.41617	0.338269
765	C	0.696038	0.433477	0.003978
766	C	0.714133	0.468589	0.004002
767	H	0.791041	0.479605	0.340966
768	O	0.696787	0.382278	0.338205
769	C	0.767738	0.023883	0.338663
770	C	0.803284	0.043157	0.004025
771	C	0.821356	0.078271	0.0041
772	C	0.803621	0.095563	0.338592
773	C	0.768592	0.078309	0.33899
774	C	0.751518	0.043204	0.339665
775	O	0.820569	0.12945	0.338788
776	H	0.726364	0.032106	0.341027
777	H	0.692838	0.375646	0.036768
778	H	0.82452	0.135952	0.037399
779	H	0.700133	0.479737	0.002336
780	H	0.81729	0.032016	0.002366
781	C	0.660949	0.24915	0.005987
782	N	0.647264	0.25172	0.300005
783	C	0.617482	0.250286	0.295911
784	C	0.599845	0.249123	0.002319
785	N	0.614747	0.248914	0.041766
786	C	0.643075	0.247377	0.045697
787	C	0.654966	0.250051	0.08619
788	C	0.609587	0.255397	0.25577
789	N	0.602627	0.260059	0.220462
790	N	0.665669	0.252708	0.121827
791	C	0.765181	0.414649	0.00561
792	N	0.762772	0.398383	0.299716
793	C	0.764193	0.370032	0.295727
794	C	0.765327	0.353525	0.002107
795	N	0.765413	0.368685	0.041476
796	C	0.766906	0.398529	0.045375
797	C	0.764198	0.407707	0.085887
798	C	0.759327	0.357058	0.25559
799	N	0.754871	0.345469	0.220279
800	N	0.761506	0.415706	0.121537
801	C	0.599939	0.353513	0.005607
802	N	0.616073	0.36735	0.299624
803	C	0.644354	0.397177	0.29546
804	C	0.660914	0.41484	0.001753
805	N	0.645982	0.399802	0.041264
806	C	0.616176	0.371414	0.045287
807	C	0.607223	0.359547	0.085853
808	C	0.657328	0.405223	0.255332
809	N	0.668927	0.412311	0.220022
810	N	0.599406	0.348863	0.12154
811	C	0.856489	0.2625	0.005975
812	N	0.870117	0.259915	0.299931
813	C	0.899863	0.261312	0.295626
814	C	0.917708	0.26253	0.001806
815	N	0.902783	0.262627	0.041329
816	C	0.874496	0.264217	0.045512
817	C	0.862645	0.26126	0.086078
818	C	0.907702	0.256201	0.255462
819	N	0.91461	0.251534	0.220123
820	N	0.851972	0.258352	0.121778
821	C	0.752118	0.096989	0.006074
822	N	0.754751	0.11327	0.300059
823	C	0.753338	0.141618	0.295792
824	C	0.752127	0.158078	0.002144
825	N	0.751913	0.143086	0.041691
826	C	0.750378	0.113225	0.045672
827	C	0.753047	0.104048	0.086191
828	C	0.758529	0.154611	0.25564
829	N	0.763259	0.16622	0.220318
830	N	0.7557	0.096037	0.121852
831	C	0.917495	0.158062	0.00562
832	N	0.901254	0.144304	0.299668
833	C	0.872884	0.114538	0.295667
834	C	0.856502	0.096977	0.00213
835	N	0.871572	0.111897	0.041584
836	C	0.901432	0.14025	0.04542
837	C	0.910682	0.152162	0.085905
838	C	0.859863	0.106425	0.255555
839	N	0.848236	0.099285	0.220266
840	N	0.918748	0.162875	0.121533
841	C	0.526754	0.264783	0.672032
842	C	0.546082	0.300332	0.672868
843	C	0.58119	0.318356	0.672255
844	C	0.598436	0.300577	0.671813
845	C	0.581138	0.26555	0.337449
846	C	0.546025	0.248507	0.33754
847	H	0.534992	0.314399	0.674032
848	O	0.632325	0.317513	0.671887
849	C	0.990716	0.246795	0.672005
850	C	0.971456	0.263079	0.337382
851	C	0.936347	0.246053	0.337227
852	C	0.919035	0.211025	0.671513
853	C	0.936267	0.19323	0.67211
854	C	0.971379	0.211249	0.672922
855	O	0.885146	0.19411	0.671523
856	H	0.982465	0.197181	0.674241
857	H	0.638886	0.320058	0.370469
858	H	0.878555	0.1915	0.370098
859	H	0.534885	0.223354	0.336065
860	H	0.9826	0.288229	0.335867
861	C	0.749714	0.264818	0.671941
862	C	0.71417	0.248572	0.672949
863	C	0.696116	0.265627	0.672292
864	C	0.713877	0.300659	0.671877
865	C	0.748902	0.318406	0.337389
866	C	0.765963	0.300359	0.337304
867	H	0.700131	0.223416	0.674285
868	O	0.696925	0.317595	0.672052
869	C	0.767729	0.2468	0.671938
870	C	0.751486	0.211259	0.337345
871	C	0.768558	0.19322	0.337341
872	C	0.803582	0.210975	0.671837
873	C	0.821334	0.246005	0.672255
874	C	0.803273	0.263051	0.672909
875	O	0.820541	0.194046	0.672032
876	H	0.817308	0.288207	0.674241
877	H	0.694395	0.321577	0.370658
878	H	0.823056	0.19006	0.370641
879	H	0.79111	0.314387	0.335652
880	H	0.726338	0.197229	0.335717
881	C	0.749678	0.48785	0.671985
882	C	0.765886	0.468517	0.67296
883	C	0.748788	0.43341	0.672197
884	C	0.713759	0.41617	0.671604
885	C	0.696038	0.433477	0.337311
886	C	0.714133	0.468589	0.337331
887	H	0.791041	0.479605	0.674302
888	O	0.696787	0.382278	0.67154
889	C	0.767738	0.023883	0.671995
890	C	0.803284	0.043157	0.337358
891	C	0.821356	0.078271	0.337432
892	C	0.803621	0.095563	0.671928
893	C	0.768592	0.078309	0.672322
894	C	0.751518	0.043204	0.672997
895	O	0.820569	0.12945	0.672123
896	H	0.726364	0.032106	0.674359
897	H	0.692838	0.375646	0.370102
898	H	0.82452	0.135952	0.370732
899	H	0.700133	0.479737	0.335667
900	H	0.81729	0.032016	0.335698
901	C	0.660949	0.24915	0.339321
902	N	0.647264	0.25172	0.63334
903	C	0.617482	0.250286	0.629243
904	C	0.599845	0.249123	0.33565
905	N	0.614747	0.248914	0.375099
906	C	0.643075	0.247377	0.379031
907	C	0.654966	0.250051	0.419524
908	C	0.609587	0.255397	0.589105
909	N	0.602627	0.260059	0.553795
910	N	0.665669	0.252708	0.45516
911	C	0.765181	0.414649	0.338943
912	N	0.762772	0.398383	0.63305
913	C	0.764193	0.370032	0.629061
914	C	0.765327	0.353525	0.335439
915	N	0.765413	0.368685	0.374809
916	C	0.766906	0.398529	0.378707
917	C	0.764198	0.407707	0.41922
918	C	0.759327	0.357058	0.588923
919	N	0.754871	0.345469	0.553613
920	N	0.761506	0.415706	0.45487
921	C	0.599939	0.353513	0.33894
922	N	0.616073	0.36735	0.632956
923	C	0.644354	0.397177	0.628795
924	C	0.660914	0.41484	0.335087
925	N	0.645982	0.399802	0.374597
926	C	0.616176	0.371414	0.37862
927	C	0.607223	0.359547	0.419186
928	C	0.657328	0.405223	0.588666
929	N	0.668927	0.412311	0.553357
930	N	0.599406	0.348863	0.454874
931	C	0.856489	0.2625	0.339307
932	N	0.870117	0.259915	0.633263
933	C	0.899863	0.261312	0.62896
934	C	0.917708	0.26253	0.335139
935	N	0.902783	0.262627	0.374664
936	C	0.874496	0.264217	0.378846
937	C	0.862645	0.26126	0.419412
938	C	0.907702	0.256201	0.588794
939	N	0.91461	0.251534	0.553458
940	N	0.851972	0.258352	0.455113
941	C	0.752118	0.096989	0.339408
942	N	0.754751	0.11327	0.633394
943	C	0.753338	0.141618	0.629125
944	C	0.752127	0.158078	0.335477
945	N	0.751913	0.143086	0.375025
946	C	0.750378	0.113225	0.379007
947	C	0.753047	0.104048	0.419524
948	C	0.758529	0.154611	0.588973
949	N	0.763259	0.16622	0.553654
950	N	0.7557	0.096037	0.455184
951	C	0.917495	0.158062	0.338953
952	N	0.901254	0.144304	0.633003
953	C	0.872884	0.114538	0.629
954	C	0.856502	0.096977	0.335462
955	N	0.871572	0.111897	0.374917
956	C	0.901432	0.14025	0.378755
957	C	0.910682	0.152162	0.41924
958	C	0.859863	0.106425	0.588889
959	N	0.848236	0.099285	0.5536
960	N	0.918748	0.162875	0.454867
961	C	0.526754	0.264783	0.005367
962	C	0.546082	0.300332	0.006201
963	C	0.58119	0.318356	0.00559
964	C	0.598436	0.300577	0.005145
965	C	0.581138	0.26555	0.670785
966	C	0.546025	0.248507	0.670876
967	H	0.534992	0.314399	0.007363
968	O	0.632325	0.317513	0.005219
969	C	0.990716	0.246795	0.00534
970	C	0.971456	0.263079	0.670714
971	C	0.936347	0.246053	0.670562
972	C	0.919035	0.211025	0.004845
973	C	0.936267	0.19323	0.005442
974	C	0.971379	0.211249	0.006256
975	O	0.885146	0.19411	0.004858
976	H	0.982465	0.197181	0.007572
977	H	0.638886	0.320058	0.703804
978	H	0.878555	0.1915	0.703433
979	H	0.534885	0.223354	0.669399
980	H	0.9826	0.288229	0.6692
981	C	0.749714	0.264818	0.005276
982	C	0.71417	0.248572	0.006282
983	C	0.696116	0.265627	0.005627
984	C	0.713877	0.300659	0.005209
985	C	0.748902	0.318406	0.670724
986	C	0.765963	0.300359	0.670636
987	H	0.700131	0.223416	0.007616
988	O	0.696925	0.317595	0.005388
989	C	0.767729	0.2468	0.00527
990	C	0.751486	0.211259	0.670677
991	C	0.768558	0.19322	0.670677
992	C	0.803582	0.210975	0.005169
993	C	0.821334	0.246005	0.005587
994	C	0.803273	0.263051	0.006241
995	O	0.820541	0.194046	0.005367
996	H	0.817308	0.288207	0.007573
997	H	0.694395	0.321577	0.70399
998	H	0.823056	0.19006	0.703973
999	H	0.79111	0.314387	0.668984
1000	H	0.726338	0.197229	0.669051
1001	C	0.749678	0.48785	0.00532
1002	C	0.765886	0.468517	0.006292
1003	C	0.748788	0.43341	0.005533
1004	C	0.713759	0.41617	0.004936
1005	C	0.696038	0.433477	0.670643
1006	C	0.714133	0.468589	0.670666
1007	H	0.791041	0.479605	0.007633
1008	O	0.696787	0.382278	0.004872
1009	C	0.767738	0.023883	0.00533
1010	C	0.803284	0.043157	0.67069
1011	C	0.821356	0.078271	0.670764
1012	C	0.803621	0.095563	0.00526
1013	C	0.768592	0.078309	0.005657
1014	C	0.751518	0.043204	0.00633
1015	O	0.820569	0.12945	0.005455
1016	H	0.726364	0.032106	0.007693
1017	H	0.692838	0.375646	0.703437
1018	H	0.82452	0.135952	0.704067
1019	H	0.700133	0.479737	0.669001
1020	H	0.81729	0.032016	0.669031
1021	C	0.660949	0.24915	0.672656
1022	N	0.647264	0.25172	0.966672
1023	C	0.617482	0.250286	0.962578
1024	C	0.599845	0.249123	0.668984
1025	N	0.614747	0.248914	0.708434
1026	C	0.643075	0.247377	0.712366
1027	C	0.654966	0.250051	0.752859
1028	C	0.609587	0.255397	0.922437
1029	N	0.602627	0.260059	0.88713
1030	N	0.665669	0.252708	0.788496
1031	C	0.765181	0.414649	0.672278
1032	N	0.762772	0.398383	0.966382
1033	C	0.764193	0.370032	0.962393
1034	C	0.765327	0.353525	0.668775
1035	N	0.765413	0.368685	0.708144
1036	C	0.766906	0.398529	0.712043
1037	C	0.764198	0.407707	0.752555
1038	C	0.759327	0.357058	0.922258
1039	N	0.754871	0.345469	0.886948
1040	N	0.761506	0.415706	0.788206
1041	C	0.599939	0.353513	0.672275
1042	N	0.616073	0.36735	0.966291
1043	C	0.644354	0.397177	0.962127
1044	C	0.660914	0.41484	0.668421
1045	N	0.645982	0.399802	0.707932
1046	C	0.616176	0.371414	0.711955
1047	C	0.607223	0.359547	0.752522
1048	C	0.657328	0.405223	0.921998
1049	N	0.668927	0.412311	0.886689
1050	N	0.599406	0.348863	0.788206
1051	C	0.856489	0.2625	0.672643
1052	N	0.870117	0.259915	0.966598
1053	C	0.899863	0.261312	0.962292
1054	C	0.917708	0.26253	0.668475
1055	N	0.902783	0.262627	0.707996
1056	C	0.874496	0.264217	0.712177
1057	C	0.862645	0.26126	0.752744
1058	C	0.907702	0.256201	0.92213
1059	N	0.91461	0.251534	0.88679
1060	N	0.851972	0.258352	0.788445
1061	C	0.752118	0.096989	0.67274
1062	N	0.754751	0.11327	0.966726
1063	C	0.753338	0.141618	0.96246
1064	C	0.752127	0.158078	0.668812
1065	N	0.751913	0.143086	0.70836
1066	C	0.750378	0.113225	0.712339
1067	C	0.753047	0.104048	0.752859
1068	C	0.758529	0.154611	0.922308
1069	N	0.763259	0.16622	0.886985
1070	N	0.7557	0.096037	0.788519
1071	C	0.917495	0.158062	0.672285
1072	N	0.901254	0.144304	0.966335
1073	C	0.872884	0.114538	0.962336
1074	C	0.856502	0.096977	0.668795
1075	N	0.871572	0.111897	0.708252
1076	C	0.901432	0.14025	0.712086
1077	C	0.910682	0.152162	0.752572
1078	C	0.859863	0.106425	0.922224
1079	N	0.848236	0.099285	0.886935
1080	N	0.918748	0.162875	0.788202
1081	C	0.526753	0.764782	0.3387
1082	C	0.546082	0.800331	0.339533
1083	C	0.581191	0.818358	0.338923
1084	C	0.598436	0.800577	0.338478
1085	C	0.581137	0.765549	0.004116
1086	C	0.546025	0.748507	0.004207
1087	H	0.534994	0.814401	0.340697
1088	O	0.632325	0.817512	0.338552
1089	C	0.990718	0.746795	0.338673
1090	C	0.971456	0.763078	0.004049
1091	C	0.936347	0.746053	0.003894
1092	C	0.919035	0.711025	0.338178
1093	C	0.936268	0.693231	0.338775
1094	C	0.971379	0.711249	0.339591
1095	O	0.885146	0.69411	0.338191
1096	H	0.982464	0.697181	0.340906
1097	H	0.638885	0.820058	0.037137
1098	H	0.878555	0.6915	0.036766
1099	H	0.534886	0.723354	0.002734
1100	H	0.982603	0.788231	0.002535
1101	C	0.749714	0.764817	0.338609
1102	C	0.71417	0.748571	0.339614
1103	C	0.696116	0.765626	0.33896
1104	C	0.713877	0.800658	0.338542
1105	C	0.748902	0.818405	0.004056
1106	C	0.765963	0.800358	0.003971
1107	H	0.700131	0.723416	0.34095
1108	O	0.696926	0.817594	0.338721
1109	C	0.767729	0.7468	0.338603
1110	C	0.751486	0.711259	0.004012
1111	C	0.768558	0.693221	0.004008
1112	C	0.803582	0.710976	0.338501
1113	C	0.821334	0.746006	0.33892
1114	C	0.803273	0.763051	0.339574
1115	O	0.820541	0.694048	0.3387
1116	H	0.817309	0.788209	0.340906
1117	H	0.694395	0.821576	0.037324
1118	H	0.823056	0.690061	0.037307
1119	H	0.79111	0.814386	0.002319
1120	H	0.726338	0.697228	0.002383
1121	C	0.749678	0.987849	0.338653
1122	C	0.765886	0.968517	0.339624
1123	C	0.748788	0.93341	0.338866
1124	C	0.713758	0.916169	0.338269
1125	C	0.696041	0.933479	0.003978
1126	C	0.714133	0.968589	0.004002
1127	H	0.791041	0.979604	0.340966
1128	O	0.696787	0.882278	0.338205
1129	C	0.767738	0.523882	0.338663
1130	C	0.803284	0.543157	0.004025
1131	C	0.821357	0.578272	0.0041
1132	C	0.803621	0.595562	0.338592
1133	C	0.768591	0.578309	0.33899
1134	C	0.751518	0.543204	0.339665
1135	O	0.820569	0.629451	0.338788
1136	H	0.726365	0.532107	0.341027
1137	H	0.692837	0.875646	0.036768
1138	H	0.82452	0.635951	0.037399
1139	H	0.700134	0.979738	0.002336
1140	H	0.817289	0.532015	0.002366
1141	C	0.66095	0.749152	0.005987
1142	N	0.647264	0.75172	0.300005
1143	C	0.617483	0.750288	0.295911
1144	C	0.599844	0.749122	0.002319
1145	N	0.614746	0.748914	0.041766
1146	C	0.643075	0.747378	0.045697
1147	C	0.654968	0.75005	0.08619
1148	C	0.609586	0.755397	0.25577
1149	N	0.602628	0.760061	0.220462
1150	N	0.66567	0.75271	0.121827
1151	C	0.765182	0.914651	0.00561
1152	N	0.762773	0.898385	0.299716
1153	C	0.764193	0.870031	0.295727
1154	C	0.765327	0.853525	0.002107
1155	N	0.765412	0.868684	0.041476
1156	C	0.766907	0.898531	0.045375
1157	C	0.764197	0.907706	0.085887
1158	C	0.759326	0.857058	0.25559
1159	N	0.75487	0.845469	0.220279
1160	N	0.761507	0.915707	0.121537
1161	C	0.599939	0.853512	0.005607
1162	N	0.616074	0.867349	0.299624
1163	C	0.644354	0.897176	0.29546
1164	C	0.660915	0.914839	0.001753
1165	N	0.645984	0.899804	0.041264
1166	C	0.616176	0.871413	0.045287
1167	C	0.607223	0.859546	0.085853
1168	C	0.657328	0.905222	0.255332
1169	N	0.668929	0.912313	0.220022
1170	N	0.599406	0.848863	0.12154
1171	C	0.85649	0.762502	0.005975
1172	N	0.870116	0.759915	0.299931
1173	C	0.899864	0.761311	0.295626
1174	C	0.917708	0.76253	0.001806
1175	N	0.902786	0.762629	0.041329
1176	C	0.874495	0.764217	0.045512
1177	C	0.862645	0.761259	0.086078
1178	C	0.907703	0.756203	0.255462
1179	N	0.91461	0.751534	0.220123
1180	N	0.851974	0.758352	0.121778
1181	C	0.752117	0.596989	0.006074
1182	N	0.754751	0.613269	0.300059
1183	C	0.753339	0.641618	0.295792
1184	C	0.752129	0.658077	0.002144
1185	N	0.751914	0.643087	0.041691
1186	C	0.750377	0.613225	0.045672
1187	C	0.753047	0.604047	0.086191
1188	C	0.758529	0.654611	0.25564
1189	N	0.763259	0.66622	0.220318
1190	N	0.7557	0.596036	0.121852
1191	C	0.917495	0.658062	0.00562
1192	N	0.901255	0.644305	0.299668
1193	C	0.872884	0.614537	0.295667
1194	C	0.856501	0.596976	0.00213
1195	N	0.871573	0.611897	0.041584
1196	C	0.901435	0.640251	0.04542
1197	C	0.910682	0.652162	0.085905
1198	C	0.859863	0.606424	0.255555
1199	N	0.848237	0.599286	0.220266
1200	N	0.918748	0.662876	0.121533
1201	C	0.526753	0.764782	0.672032
1202	C	0.546082	0.800331	0.672868
1203	C	0.581191	0.818358	0.672255
1204	C	0.598436	0.800577	0.671813
1205	C	0.581137	0.765549	0.337449
1206	C	0.546025	0.748507	0.33754
1207	H	0.534994	0.814401	0.674032
1208	O	0.632325	0.817512	0.671887
1209	C	0.990718	0.746795	0.672005
1210	C	0.971456	0.763078	0.337382
1211	C	0.936347	0.746053	0.337227
1212	C	0.919035	0.711025	0.671513
1213	C	0.936268	0.693231	0.67211
1214	C	0.971379	0.711249	0.672922
1215	O	0.885146	0.69411	0.671523
1216	H	0.982464	0.697181	0.674241
1217	H	0.638885	0.820058	0.370469
1218	H	0.878555	0.6915	0.370098
1219	H	0.534886	0.723354	0.336065
1220	H	0.982603	0.788231	0.335867
1221	C	0.749714	0.764817	0.671941
1222	C	0.71417	0.748571	0.672949
1223	C	0.696116	0.765626	0.672292
1224	C	0.713877	0.800658	0.671877
1225	C	0.748902	0.818405	0.337389
1226	C	0.765963	0.800358	0.337304
1227	H	0.700131	0.723416	0.674285
1228	O	0.696926	0.817594	0.672052
1229	C	0.767729	0.7468	0.671938
1230	C	0.751486	0.711259	0.337345
1231	C	0.768558	0.693221	0.337341
1232	C	0.803582	0.710976	0.671837
1233	C	0.821334	0.746006	0.672255
1234	C	0.803273	0.763051	0.672909
1235	O	0.820541	0.694048	0.672032
1236	H	0.817309	0.788209	0.674241
1237	H	0.694395	0.821576	0.370658
1238	H	0.823056	0.690061	0.370641
1239	H	0.79111	0.814386	0.335652
1240	H	0.726338	0.697228	0.335717
1241	C	0.749678	0.987849	0.671985
1242	C	0.765886	0.968517	0.67296
1243	C	0.748788	0.93341	0.672197
1244	C	0.713758	0.916169	0.671604
1245	C	0.696041	0.933479	0.337311
1246	C	0.714133	0.968589	0.337331
1247	H	0.791041	0.979604	0.674302
1248	O	0.696787	0.882278	0.67154
1249	C	0.767738	0.523882	0.671995
1250	C	0.803284	0.543157	0.337358
1251	C	0.821357	0.578272	0.337432
1252	C	0.803621	0.595562	0.671928
1253	C	0.768591	0.578309	0.672322
1254	C	0.751518	0.543204	0.672997
1255	O	0.820569	0.629451	0.672123
1256	H	0.726365	0.532107	0.674359
1257	H	0.692837	0.875646	0.370102
1258	H	0.82452	0.635951	0.370732
1259	H	0.700134	0.979738	0.335667
1260	H	0.817289	0.532015	0.335698
1261	C	0.66095	0.749152	0.339321
1262	N	0.647264	0.75172	0.63334
1263	C	0.617483	0.750288	0.629243
1264	C	0.599844	0.749122	0.33565
1265	N	0.614746	0.748914	0.375099
1266	C	0.643075	0.747378	0.379031
1267	C	0.654968	0.75005	0.419524
1268	C	0.609586	0.755397	0.589105
1269	N	0.602628	0.760061	0.553795
1270	N	0.66567	0.75271	0.45516
1271	C	0.765182	0.914651	0.338943
1272	N	0.762773	0.898385	0.63305
1273	C	0.764193	0.870031	0.629061
1274	C	0.765327	0.853525	0.335439
1275	N	0.765412	0.868684	0.374809
1276	C	0.766907	0.898531	0.378707
1277	C	0.764197	0.907706	0.41922
1278	C	0.759326	0.857058	0.588923
1279	N	0.75487	0.845469	0.553613
1280	N	0.761507	0.915707	0.45487
1281	C	0.599939	0.853512	0.33894
1282	N	0.616074	0.867349	0.632956
1283	C	0.644354	0.897176	0.628795
1284	C	0.660915	0.914839	0.335087
1285	N	0.645984	0.899804	0.374597
1286	C	0.616176	0.871413	0.37862
1287	C	0.607223	0.859546	0.419186
1288	C	0.657328	0.905222	0.588666
1289	N	0.668929	0.912313	0.553357
1290	N	0.599406	0.848863	0.454874
1291	C	0.85649	0.762502	0.339307
1292	N	0.870116	0.759915	0.633263
1293	C	0.899864	0.761311	0.62896
1294	C	0.917708	0.76253	0.335139
1295	N	0.902786	0.762629	0.374664
1296	C	0.874495	0.764217	0.378846
1297	C	0.862645	0.761259	0.419412
1298	C	0.907703	0.756203	0.588794
1299	N	0.91461	0.751534	0.553458
1300	N	0.851974	0.758352	0.455113
1301	C	0.752117	0.596989	0.339408
1302	N	0.754751	0.613269	0.633394
1303	C	0.753339	0.641618	0.629125
1304	C	0.752129	0.658077	0.335477
1305	N	0.751914	0.643087	0.375025
1306	C	0.750377	0.613225	0.379007
1307	C	0.753047	0.604047	0.419524
1308	C	0.758529	0.654611	0.588973
1309	N	0.763259	0.66622	0.553654
1310	N	0.7557	0.596036	0.455184
1311	C	0.917495	0.658062	0.338953
1312	N	0.901255	0.644305	0.633003
1313	C	0.872884	0.614537	0.629
1314	C	0.856501	0.596976	0.335462
1315	N	0.871573	0.611897	0.374917
1316	C	0.901435	0.640251	0.378755
1317	C	0.910682	0.652162	0.41924
1318	C	0.859863	0.606424	0.588889
1319	N	0.848237	0.599286	0.5536
1320	N	0.918748	0.662876	0.454867
1321	C	0.526753	0.764782	0.005367
1322	C	0.546082	0.800331	0.006201
1323	C	0.581191	0.818358	0.00559
1324	C	0.598436	0.800577	0.005145
1325	C	0.581137	0.765549	0.670785
1326	C	0.546025	0.748507	0.670876
1327	H	0.534994	0.814401	0.007363
1328	O	0.632325	0.817512	0.005219
1329	C	0.990718	0.746795	0.00534
1330	C	0.971456	0.763078	0.670714
1331	C	0.936347	0.746053	0.670562
1332	C	0.919035	0.711025	0.004845
1333	C	0.936268	0.693231	0.005442
1334	C	0.971379	0.711249	0.006256
1335	O	0.885146	0.69411	0.004858
1336	H	0.982464	0.697181	0.007572
1337	H	0.638885	0.820058	0.703804
1338	H	0.878555	0.6915	0.703433
1339	H	0.534886	0.723354	0.669399
1340	H	0.982603	0.788231	0.6692
1341	C	0.749714	0.764817	0.005276
1342	C	0.71417	0.748571	0.006282
1343	C	0.696116	0.765626	0.005627
1344	C	0.713877	0.800658	0.005209
1345	C	0.748902	0.818405	0.670724
1346	C	0.765963	0.800358	0.670636
1347	H	0.700131	0.723416	0.007616
1348	O	0.696926	0.817594	0.005388
1349	C	0.767729	0.7468	0.00527
1350	C	0.751486	0.711259	0.670677
1351	C	0.768558	0.693221	0.670677
1352	C	0.803582	0.710976	0.005169
1353	C	0.821334	0.746006	0.005587
1354	C	0.803273	0.763051	0.006241
1355	O	0.820541	0.694048	0.005367
1356	H	0.817309	0.788209	0.007572
1357	H	0.694395	0.821576	0.70399
1358	H	0.823056	0.690061	0.703973
1359	H	0.79111	0.814386	0.668984
1360	H	0.726338	0.697228	0.669051
1361	C	0.749678	0.987849	0.00532
1362	C	0.765886	0.968517	0.006292
1363	C	0.748788	0.93341	0.005533
1364	C	0.713758	0.916169	0.004936
1365	C	0.696041	0.933479	0.670643
1366	C	0.714133	0.968589	0.670666
1367	H	0.791041	0.979604	0.007633
1368	O	0.696787	0.882278	0.004872
1369	C	0.767738	0.523882	0.00533
1370	C	0.803284	0.543157	0.67069
1371	C	0.821357	0.578272	0.670764
1372	C	0.803621	0.595562	0.00526
1373	C	0.768591	0.578309	0.005657
1374	C	0.751518	0.543204	0.00633
1375	O	0.820569	0.629451	0.005455
1376	H	0.726365	0.532107	0.007693
1377	H	0.692837	0.875646	0.703437
1378	H	0.82452	0.635951	0.704067
1379	H	0.700134	0.979738	0.669001
1380	H	0.817289	0.532015	0.669031
1381	C	0.66095	0.749152	0.672656
1382	N	0.647264	0.75172	0.966672
1383	C	0.617483	0.750288	0.962578
1384	C	0.599844	0.749122	0.668984
1385	N	0.614746	0.748914	0.708434
1386	C	0.643075	0.747378	0.712366
1387	C	0.654968	0.75005	0.752859
1388	C	0.609586	0.755397	0.922437
1389	N	0.602628	0.760061	0.88713
1390	N	0.66567	0.75271	0.788496
1391	C	0.765182	0.914651	0.672278
1392	N	0.762773	0.898385	0.966382
1393	C	0.764193	0.870031	0.962393
1394	C	0.765327	0.853525	0.668775
1395	N	0.765412	0.868684	0.708144
1396	C	0.766907	0.898531	0.712043
1397	C	0.764197	0.907706	0.752555
1398	C	0.759326	0.857058	0.922258
1399	N	0.75487	0.845469	0.886948
1400	N	0.761507	0.915707	0.788206
1401	C	0.599939	0.853512	0.672275
1402	N	0.616074	0.867349	0.966291
1403	C	0.644354	0.897176	0.962127
1404	C	0.660915	0.914839	0.668421
1405	N	0.645984	0.899804	0.707932
1406	C	0.616176	0.871413	0.711955
1407	C	0.607223	0.859546	0.752522
1408	C	0.657328	0.905222	0.921998
1409	N	0.668929	0.912313	0.886689
1410	N	0.599406	0.848863	0.788206
1411	C	0.85649	0.762502	0.672643
1412	N	0.870116	0.759915	0.966598
1413	C	0.899864	0.761311	0.962292
1414	C	0.917708	0.76253	0.668475
1415	N	0.902786	0.762629	0.707996
1416	C	0.874495	0.764217	0.712177
1417	C	0.862645	0.761259	0.752744
1418	C	0.907703	0.756203	0.92213
1419	N	0.91461	0.751534	0.88679
1420	N	0.851974	0.758352	0.788445
1421	C	0.752117	0.596989	0.67274
1422	N	0.754751	0.613269	0.966726
1423	C	0.753339	0.641618	0.96246
1424	C	0.752129	0.658077	0.668812
1425	N	0.751914	0.643087	0.70836
1426	C	0.750377	0.613225	0.712339
1427	C	0.753047	0.604047	0.752859
1428	C	0.758529	0.654611	0.922308
1429	N	0.763259	0.66622	0.886985
1430	N	0.7557	0.596036	0.788519
1431	C	0.917495	0.658062	0.672285
1432	N	0.901255	0.644305	0.966335
1433	C	0.872884	0.614537	0.962336
1434	C	0.856501	0.596976	0.668795
1435	N	0.871573	0.611897	0.708252
1436	C	0.901435	0.640251	0.712086
1437	C	0.910682	0.652162	0.752572
1438	C	0.859863	0.606424	0.922224
1439	N	0.848237	0.599286	0.886935
1440	N	0.918748	0.662876	0.788202
