data_C432H360N144O144_2018-02-15_10:32:47
#******************************************
#
# CIF file created by Zeo++
# Zeo++ is an open source package to
# analyze microporous materials
#
#*******************************************

_cell_length_a		43.7294   
_cell_length_b		43.7294   
_cell_length_c		30.2128   
_cell_angle_alpha		90   
_cell_angle_beta		90   
_cell_angle_gamma		120   

_symmetry_space_group_name_H-M		'P1'
_symmetry_Int_Tables_number		1
_symmetry_cell_setting		Monoclinic

loop_
_symmetry_equiv_pos_as_xyz
'+x,+y,+z'

loop_
_atom_site_label
_atom_site_type_symbol
_atom_site_fract_x
_atom_site_fract_y
_atom_site_fract_z
1	C	0.174479	0.366993	0.04067
2	C	0.137836	0.342631	0.041788
3	C	0.124184	0.305711	0.040686
4	C	0.14855	0.293432	0.04175
5	C	0.185469	0.316701	0.37399
6	C	0.19775	0.353346	0.041792
7	H	0.13915	0.266823	0.04173
8	H	0.224358	0.370552	0.041734
9	H	0.120627	0.352031	0.041797
10	C	0.186909	0.403551	0.035331
11	C	0.209596	0.304269	0.368628
12	C	0.087621	0.281589	0.03535
13	O	0.244029	0.326751	0.045266
14	O	0.164442	0.415523	0.045287
15	O	0.075672	0.247153	0.045297
16	C	0.314966	0.12596	0.952328
17	C	0.351606	0.15033	0.951176
18	C	0.365243	0.187246	0.952285
19	C	0.340869	0.199513	0.951209
20	C	0.303951	0.176235	0.285634
21	C	0.291683	0.139593	0.951226
22	H	0.35026	0.226121	0.951209
23	H	0.265075	0.122377	0.951245
24	H	0.368821	0.140936	0.951196
25	C	0.302565	0.089409	0.957683
26	C	0.27979	0.188625	0.290984
27	C	0.401803	0.211377	0.95763
28	O	0.245376	0.166192	0.947552
29	O	0.325006	0.077422	0.947638
30	O	0.413745	0.245813	0.947687
31	C	0.26705	0.232621	0.988435
32	N	0.235468	0.220075	0.300905
33	C	0.212932	0.232453	0.307211
34	C	0.22237	0.260328	0.337747
35	N	0.253952	0.272875	0.025274
36	C	0.276492	0.260504	0.018962
37	O	0.307194	0.275283	0.042796
38	O	0.182228	0.217672	0.283382
39	C	0.302689	0.260391	0.086407
40	H	0.328284	0.2733	0.102892
41	H	0.293319	0.232079	0.085021
42	H	0.284415	0.264954	0.106212
43	C	0.186728	0.232566	0.239773
44	H	0.161133	0.219656	0.22329
45	H	0.205002	0.228006	0.219964
46	H	0.196096	0.260878	0.241163
47	N	0.200871	0.273807	0.346257
48	H	0.177882	0.261799	0.331962
49	N	0.288537	0.219124	0.979948
50	H	0.311517	0.231135	0.99427
51	C	0.258586	0.032669	0.988504
52	N	0.271138	0.013633	0.300989
53	C	0.258763	0.478723	0.307303
54	C	0.230876	0.460284	0.337827
55	N	0.218325	0.479319	0.025344
56	C	0.230699	0.014231	0.019027
57	O	0.215922	0.030157	0.042858
58	O	0.273546	0.462797	0.283481
59	C	0.230811	0.040543	0.08647
60	H	0.217904	0.053232	0.102953
61	H	0.259125	0.059483	0.085086
62	H	0.226245	0.017707	0.106277
63	C	0.258662	0.452407	0.239868
64	H	0.271574	0.439719	0.223392
65	H	0.263225	0.47524	0.220057
66	H	0.230349	0.433463	0.24125
67	N	0.217387	0.425304	0.346333
68	H	0.229409	0.414338	0.332035
69	N	0.272084	0.067651	0.980008
70	H	0.260064	0.07862	0.99431
71	C	0.458519	0.22415	0.988504
72	N	0.477555	0.255732	0.300979
73	C	0.012467	0.278273	0.307297
74	C	0.030902	0.26883	0.337837
75	N	0.011865	0.237247	0.025361
76	C	0.476955	0.21471	0.019045
77	O	0.461029	0.184005	0.042872
78	O	0.028393	0.308977	0.28347
79	C	0.450634	0.188502	0.08648
80	H	0.437947	0.162905	0.102961
81	H	0.43169	0.197869	0.085089
82	H	0.473464	0.206775	0.106293
83	C	0.038787	0.304477	0.239861
84	H	0.051475	0.330075	0.223381
85	H	0.015953	0.286207	0.220049
86	H	0.057727	0.295106	0.241249
87	N	0.065882	0.290324	0.346336
88	H	0.076862	0.313313	0.332041
89	N	0.423543	0.20265	0.979988
90	H	0.412572	0.179664	0.994293
91	C	0.174479	0.366993	0.374004
92	C	0.137836	0.342631	0.375122
93	C	0.124184	0.305711	0.37402
94	C	0.14855	0.293432	0.375083
95	C	0.185469	0.316701	0.707326
96	C	0.19775	0.353346	0.375126
97	H	0.13915	0.266823	0.375063
98	H	0.224358	0.370552	0.375069
99	H	0.120627	0.352031	0.375132
100	C	0.186909	0.403551	0.368665
101	C	0.209596	0.304269	0.701964
102	C	0.087621	0.281589	0.368685
103	O	0.244029	0.326751	0.378601
104	O	0.164442	0.415523	0.378621
105	O	0.075672	0.247153	0.378631
106	C	0.314966	0.12596	0.285662
107	C	0.351606	0.15033	0.28451
108	C	0.365243	0.187246	0.285619
109	C	0.340869	0.199513	0.284541
110	C	0.303951	0.176235	0.618969
111	C	0.291683	0.139593	0.284558
112	H	0.35026	0.226121	0.284541
113	H	0.265075	0.122377	0.284578
114	H	0.368821	0.140936	0.284529
115	C	0.302565	0.089409	0.291015
116	C	0.27979	0.188625	0.624318
117	C	0.401803	0.211377	0.290964
118	O	0.245376	0.166192	0.280885
119	O	0.325006	0.077422	0.280972
120	O	0.413745	0.245813	0.28102
121	C	0.26705	0.232621	0.321767
122	N	0.235468	0.220075	0.634238
123	C	0.212932	0.232453	0.640546
124	C	0.22237	0.260328	0.671083
125	N	0.253952	0.272875	0.358606
126	C	0.276492	0.260504	0.352294
127	O	0.307194	0.275283	0.376128
128	O	0.182228	0.217672	0.616715
129	C	0.302689	0.260391	0.419739
130	H	0.328284	0.2733	0.436226
131	H	0.293319	0.232079	0.418356
132	H	0.284415	0.264954	0.439545
133	C	0.186728	0.232566	0.573108
134	H	0.161133	0.219656	0.556625
135	H	0.205002	0.228006	0.553298
136	H	0.196096	0.260878	0.574495
137	N	0.200871	0.273807	0.679592
138	H	0.177882	0.261799	0.665294
139	N	0.288537	0.219124	0.313281
140	H	0.311517	0.231135	0.327602
141	C	0.258586	0.032669	0.321837
142	N	0.271138	0.013633	0.634324
143	C	0.258763	0.478723	0.640635
144	C	0.230876	0.460284	0.671159
145	N	0.218325	0.479319	0.358676
146	C	0.230699	0.014231	0.35236
147	O	0.215922	0.030157	0.376191
148	O	0.273546	0.462797	0.616814
149	C	0.230811	0.040543	0.419802
150	H	0.217904	0.053232	0.436285
151	H	0.259125	0.059483	0.418418
152	H	0.226245	0.017707	0.439611
153	C	0.258662	0.452407	0.5732
154	H	0.271574	0.439719	0.556727
155	H	0.263225	0.47524	0.553391
156	H	0.230349	0.433463	0.574584
157	N	0.217387	0.425304	0.679669
158	H	0.229409	0.414338	0.66537
159	N	0.272084	0.067651	0.313342
160	H	0.260064	0.07862	0.327642
161	C	0.458519	0.22415	0.321838
162	N	0.477555	0.255732	0.634314
163	C	0.012467	0.278273	0.640632
164	C	0.030902	0.26883	0.671169
165	N	0.011865	0.237247	0.358695
166	C	0.476955	0.21471	0.352377
167	O	0.461029	0.184005	0.376205
168	O	0.028393	0.308977	0.616805
169	C	0.450634	0.188502	0.419812
170	H	0.437947	0.162905	0.436295
171	H	0.43169	0.197869	0.418422
172	H	0.473464	0.206775	0.439628
173	C	0.038787	0.304477	0.573194
174	H	0.051475	0.330075	0.556714
175	H	0.015953	0.286207	0.553381
176	H	0.057727	0.295106	0.574581
177	N	0.065882	0.290324	0.679669
178	H	0.076862	0.313313	0.665377
179	N	0.423543	0.20265	0.31332
180	H	0.412572	0.179664	0.327625
181	C	0.174479	0.366993	0.707336
182	C	0.137836	0.342631	0.708454
183	C	0.124184	0.305711	0.707352
184	C	0.14855	0.293432	0.708418
185	C	0.185469	0.316701	0.040658
186	C	0.19775	0.353346	0.708458
187	H	0.13915	0.266823	0.708398
188	H	0.224358	0.370552	0.708401
189	H	0.120627	0.352031	0.708464
190	C	0.186909	0.403551	0.701997
191	C	0.209596	0.304269	0.035296
192	C	0.087621	0.281589	0.702017
193	O	0.244029	0.326751	0.711933
194	O	0.164442	0.415523	0.711953
195	O	0.075672	0.247153	0.711963
196	C	0.314966	0.12596	0.618996
197	C	0.351606	0.15033	0.617844
198	C	0.365243	0.187246	0.618953
199	C	0.340869	0.199513	0.617874
200	C	0.303951	0.176235	0.952301
201	C	0.291683	0.139593	0.61789
202	H	0.35026	0.226121	0.617874
203	H	0.265075	0.122377	0.61791
204	H	0.368821	0.140936	0.61786
205	C	0.302565	0.089409	0.624348
206	C	0.27979	0.188625	0.95765
207	C	0.401803	0.211377	0.624298
208	O	0.245376	0.166192	0.61422
209	O	0.325006	0.077422	0.614306
210	O	0.413745	0.245813	0.614352
211	C	0.26705	0.232621	0.6551
212	N	0.235468	0.220075	0.967573
213	C	0.212932	0.232453	0.973878
214	C	0.22237	0.260328	0.004416
215	N	0.253952	0.272875	0.691942
216	C	0.276492	0.260504	0.68563
217	O	0.307194	0.275283	0.709464
218	O	0.182228	0.217672	0.950051
219	C	0.302689	0.260391	0.753075
220	H	0.328284	0.2733	0.769561
221	H	0.293319	0.232079	0.751688
222	H	0.284415	0.264954	0.772881
223	C	0.186728	0.232566	0.90644
224	H	0.161133	0.219656	0.889957
225	H	0.205002	0.228006	0.88663
226	H	0.196096	0.260878	0.90783
227	N	0.200871	0.273807	0.012924
228	H	0.177882	0.261799	0.998628
229	N	0.288537	0.219124	0.646613
230	H	0.311517	0.231135	0.660935
231	C	0.258586	0.032669	0.655169
232	N	0.271138	0.013633	0.967656
233	C	0.258763	0.478723	0.973971
234	C	0.230876	0.460284	0.004493
235	N	0.218325	0.479319	0.692011
236	C	0.230699	0.014231	0.685696
237	O	0.215922	0.030157	0.709527
238	O	0.273546	0.462797	0.950147
239	C	0.230811	0.040543	0.753137
240	H	0.217904	0.053232	0.76962
241	H	0.259125	0.059483	0.751754
242	H	0.226245	0.017707	0.772944
243	C	0.258662	0.452407	0.906536
244	H	0.271574	0.439719	0.890059
245	H	0.263225	0.47524	0.886723
246	H	0.230349	0.433463	0.907916
247	N	0.217387	0.425304	0.013
248	H	0.229409	0.414338	0.998702
249	N	0.272084	0.067651	0.646676
250	H	0.260064	0.07862	0.660975
251	C	0.458519	0.22415	0.655172
252	N	0.477555	0.255732	0.967646
253	C	0.012467	0.278273	0.973964
254	C	0.030902	0.26883	0.004502
255	N	0.011865	0.237247	0.692028
256	C	0.476955	0.21471	0.685712
257	O	0.461029	0.184005	0.70954
258	O	0.028393	0.308977	0.950137
259	C	0.450634	0.188502	0.753147
260	H	0.437947	0.162905	0.769627
261	H	0.43169	0.197869	0.751757
262	H	0.473464	0.206775	0.77296
263	C	0.038787	0.304477	0.906529
264	H	0.051475	0.330075	0.890046
265	H	0.015953	0.286207	0.886716
266	H	0.057727	0.295106	0.907916
267	N	0.065882	0.290324	0.013002
268	H	0.076862	0.313313	0.998708
269	N	0.423543	0.20265	0.646653
270	H	0.412572	0.179664	0.660958
271	C	0.174478	0.866993	0.04067
272	C	0.137836	0.842631	0.041788
273	C	0.124182	0.805711	0.040686
274	C	0.14855	0.793435	0.04175
275	C	0.185469	0.816701	0.37399
276	C	0.197749	0.853346	0.041792
277	H	0.13915	0.766823	0.04173
278	H	0.224358	0.870552	0.041734
279	H	0.120626	0.852031	0.041797
280	C	0.186908	0.903551	0.035331
281	C	0.209596	0.804269	0.368628
282	C	0.087621	0.781589	0.03535
283	O	0.244029	0.826751	0.045266
284	O	0.164442	0.915524	0.045287
285	O	0.075672	0.747154	0.045297
286	C	0.314965	0.62596	0.952328
287	C	0.351605	0.65033	0.951176
288	C	0.365245	0.687247	0.952285
289	C	0.340868	0.699513	0.951209
290	C	0.30395	0.676234	0.285634
291	C	0.291684	0.639593	0.951226
292	H	0.35026	0.726122	0.951209
293	H	0.265074	0.622377	0.951245
294	H	0.368819	0.640935	0.951196
295	C	0.302566	0.589409	0.957683
296	C	0.27979	0.688626	0.290984
297	C	0.401803	0.711377	0.95763
298	O	0.245375	0.666192	0.947552
299	O	0.325004	0.577421	0.947638
300	O	0.413746	0.745812	0.947687
301	C	0.26705	0.732623	0.988435
302	N	0.235467	0.720075	0.300905
303	C	0.212932	0.732454	0.307211
304	C	0.222369	0.760327	0.337747
305	N	0.253952	0.772875	0.025274
306	C	0.276492	0.760504	0.018962
307	O	0.307193	0.775284	0.042796
308	O	0.182227	0.717672	0.283382
309	C	0.302689	0.760391	0.086407
310	H	0.328284	0.773301	0.102892
311	H	0.293318	0.732079	0.085021
312	H	0.284415	0.764954	0.106212
313	C	0.186729	0.732567	0.239773
314	H	0.161132	0.719655	0.22329
315	H	0.205002	0.728007	0.219964
316	H	0.196096	0.760877	0.241163
317	N	0.200871	0.773808	0.346257
318	H	0.177883	0.761801	0.331962
319	N	0.288537	0.719124	0.979948
320	H	0.311517	0.731136	0.99427
321	C	0.258585	0.532669	0.988504
322	N	0.271138	0.513633	0.30099
323	C	0.258764	0.978723	0.307303
324	C	0.230875	0.960284	0.337827
325	N	0.218325	0.97932	0.025343
326	C	0.230698	0.51423	0.019027
327	O	0.215922	0.530158	0.042858
328	O	0.273546	0.962798	0.283481
329	C	0.230811	0.540543	0.08647
330	H	0.217904	0.553231	0.102953
331	H	0.259125	0.559484	0.085086
332	H	0.226245	0.517708	0.106277
333	C	0.258662	0.952407	0.239868
334	H	0.271575	0.939722	0.223392
335	H	0.263225	0.97524	0.220057
336	H	0.230348	0.933464	0.241249
337	N	0.217387	0.925304	0.346333
338	H	0.229409	0.914338	0.332035
339	N	0.272085	0.567651	0.980008
340	H	0.260064	0.57862	0.99431
341	C	0.458519	0.724149	0.988504
342	N	0.477556	0.755733	0.300979
343	C	0.012468	0.778273	0.307297
344	C	0.030902	0.76883	0.337837
345	N	0.011865	0.737246	0.025361
346	C	0.476954	0.714709	0.019045
347	O	0.461029	0.684005	0.042872
348	O	0.028394	0.808977	0.28347
349	C	0.450632	0.688502	0.08648
350	H	0.437947	0.662907	0.102961
351	H	0.431689	0.69787	0.085089
352	H	0.473464	0.706774	0.106293
353	C	0.038785	0.804478	0.239861
354	H	0.051474	0.830075	0.223381
355	H	0.015953	0.786208	0.220049
356	H	0.057728	0.795109	0.241249
357	N	0.065883	0.790324	0.346336
358	H	0.076862	0.813313	0.332041
359	N	0.423543	0.70265	0.979988
360	H	0.41257	0.679664	0.994293
361	C	0.174478	0.866993	0.374004
362	C	0.137836	0.842631	0.375122
363	C	0.124182	0.805711	0.37402
364	C	0.14855	0.793435	0.375083
365	C	0.185469	0.816701	0.707326
366	C	0.197749	0.853346	0.375126
367	H	0.13915	0.766823	0.375063
368	H	0.224358	0.870552	0.375069
369	H	0.120626	0.852031	0.375132
370	C	0.186908	0.903551	0.368665
371	C	0.209596	0.804269	0.701964
372	C	0.087621	0.781589	0.368685
373	O	0.244029	0.826751	0.378601
374	O	0.164442	0.915524	0.378621
375	O	0.075672	0.747154	0.378631
376	C	0.314965	0.62596	0.285662
377	C	0.351605	0.65033	0.28451
378	C	0.365245	0.687247	0.285619
379	C	0.340868	0.699513	0.284541
380	C	0.30395	0.676234	0.618969
381	C	0.291684	0.639593	0.284558
382	H	0.35026	0.726122	0.284541
383	H	0.265074	0.622377	0.284578
384	H	0.368819	0.640935	0.284529
385	C	0.302566	0.589409	0.291015
386	C	0.27979	0.688626	0.624318
387	C	0.401803	0.711377	0.290964
388	O	0.245375	0.666192	0.280885
389	O	0.325004	0.577421	0.280972
390	O	0.413746	0.745812	0.28102
391	C	0.26705	0.732623	0.321767
392	N	0.235467	0.720075	0.634238
393	C	0.212932	0.732454	0.640546
394	C	0.222369	0.760327	0.671083
395	N	0.253952	0.772875	0.358606
396	C	0.276492	0.760504	0.352294
397	O	0.307193	0.775284	0.376128
398	O	0.182227	0.717672	0.616715
399	C	0.302689	0.760391	0.419739
400	H	0.328284	0.773301	0.436226
401	H	0.293318	0.732079	0.418356
402	H	0.284415	0.764954	0.439545
403	C	0.186729	0.732567	0.573108
404	H	0.161132	0.719655	0.556625
405	H	0.205002	0.728007	0.553298
406	H	0.196096	0.760877	0.574495
407	N	0.200871	0.773808	0.679589
408	H	0.177883	0.761801	0.665294
409	N	0.288537	0.719124	0.313281
410	H	0.311517	0.731136	0.327602
411	C	0.258585	0.532669	0.321837
412	N	0.271138	0.513633	0.634324
413	C	0.258764	0.978723	0.640635
414	C	0.230875	0.960284	0.671159
415	N	0.218325	0.97932	0.358676
416	C	0.230698	0.51423	0.35236
417	O	0.215922	0.530158	0.376191
418	O	0.273546	0.962798	0.616814
419	C	0.230811	0.540543	0.419802
420	H	0.217904	0.553231	0.436285
421	H	0.259125	0.559484	0.418418
422	H	0.226245	0.517708	0.439611
423	C	0.258662	0.952407	0.5732
424	H	0.271575	0.939722	0.556724
425	H	0.263225	0.97524	0.553391
426	H	0.230348	0.933464	0.574584
427	N	0.217387	0.925304	0.679669
428	H	0.229409	0.914338	0.66537
429	N	0.272085	0.567651	0.313342
430	H	0.260064	0.57862	0.327642
431	C	0.458519	0.724149	0.321838
432	N	0.477556	0.755733	0.634314
433	C	0.012468	0.778273	0.640632
434	C	0.030902	0.76883	0.671169
435	N	0.011865	0.737246	0.358695
436	C	0.476954	0.714709	0.352377
437	O	0.461029	0.684005	0.376205
438	O	0.028394	0.808977	0.616805
439	C	0.450632	0.688502	0.419812
440	H	0.437947	0.662907	0.436295
441	H	0.431689	0.69787	0.418422
442	H	0.473464	0.706774	0.439628
443	C	0.038785	0.804478	0.573194
444	H	0.051474	0.830075	0.556714
445	H	0.015953	0.786208	0.553381
446	H	0.057728	0.795109	0.574581
447	N	0.065883	0.790324	0.679669
448	H	0.076862	0.813313	0.665377
449	N	0.423543	0.70265	0.31332
450	H	0.41257	0.679664	0.327625
451	C	0.174478	0.866993	0.707336
452	C	0.137836	0.842631	0.708454
453	C	0.124182	0.805711	0.707352
454	C	0.14855	0.793435	0.708418
455	C	0.185469	0.816701	0.040658
456	C	0.197749	0.853346	0.708458
457	H	0.13915	0.766823	0.708398
458	H	0.224358	0.870552	0.708401
459	H	0.120626	0.852031	0.708464
460	C	0.186908	0.903551	0.701997
461	C	0.209596	0.804269	0.035296
462	C	0.087621	0.781589	0.702017
463	O	0.244029	0.826751	0.711933
464	O	0.164442	0.915524	0.711953
465	O	0.075672	0.747154	0.711963
466	C	0.314965	0.62596	0.618996
467	C	0.351605	0.65033	0.617844
468	C	0.365245	0.687247	0.618953
469	C	0.340868	0.699513	0.617874
470	C	0.30395	0.676234	0.952301
471	C	0.291684	0.639593	0.61789
472	H	0.35026	0.726122	0.617874
473	H	0.265074	0.622377	0.61791
474	H	0.368819	0.640935	0.617864
475	C	0.302566	0.589409	0.624348
476	C	0.27979	0.688626	0.95765
477	C	0.401803	0.711377	0.624298
478	O	0.245375	0.666192	0.61422
479	O	0.325004	0.577421	0.614306
480	O	0.413746	0.745812	0.614352
481	C	0.26705	0.732623	0.6551
482	N	0.235467	0.720075	0.967573
483	C	0.212932	0.732454	0.973878
484	C	0.222369	0.760327	0.004416
485	N	0.253952	0.772875	0.691942
486	C	0.276492	0.760504	0.68563
487	O	0.307193	0.775284	0.709464
488	O	0.182227	0.717672	0.950051
489	C	0.302689	0.760391	0.753075
490	H	0.328284	0.773301	0.769561
491	H	0.293318	0.732079	0.751688
492	H	0.284415	0.764954	0.772881
493	C	0.186729	0.732567	0.90644
494	H	0.161132	0.719655	0.889957
495	H	0.205002	0.728007	0.88663
496	H	0.196096	0.760877	0.90783
497	N	0.200871	0.773808	0.012924
498	H	0.177883	0.761801	0.998628
499	N	0.288537	0.719124	0.646613
500	H	0.311517	0.731136	0.660935
501	C	0.258585	0.532669	0.655169
502	N	0.271138	0.513633	0.967656
503	C	0.258764	0.978723	0.973971
504	C	0.230875	0.960284	0.004493
505	N	0.218325	0.97932	0.692011
506	C	0.230698	0.51423	0.685696
507	O	0.215922	0.530158	0.709527
508	O	0.273546	0.962798	0.950147
509	C	0.230811	0.540543	0.753137
510	H	0.217904	0.553231	0.76962
511	H	0.259125	0.559484	0.751754
512	H	0.226245	0.517708	0.772944
513	C	0.258662	0.952407	0.906536
514	H	0.271575	0.939722	0.890059
515	H	0.263225	0.97524	0.886723
516	H	0.230348	0.933464	0.907916
517	N	0.217387	0.925304	0.013
518	H	0.229409	0.914338	0.998702
519	N	0.272085	0.567651	0.646676
520	H	0.260064	0.57862	0.660975
521	C	0.458519	0.724149	0.655172
522	N	0.477556	0.755733	0.967646
523	C	0.012468	0.778273	0.973964
524	C	0.030902	0.76883	0.004502
525	N	0.011865	0.737246	0.692028
526	C	0.476954	0.714709	0.685712
527	O	0.461029	0.684005	0.70954
528	O	0.028394	0.808977	0.950137
529	C	0.450632	0.688502	0.753147
530	H	0.437947	0.662907	0.769627
531	H	0.431689	0.69787	0.751757
532	H	0.473464	0.706774	0.77296
533	C	0.038785	0.804478	0.906529
534	H	0.051474	0.830075	0.890046
535	H	0.015953	0.786208	0.886716
536	H	0.057728	0.795109	0.907916
537	N	0.065883	0.790324	0.013002
538	H	0.076862	0.813313	0.998708
539	N	0.423543	0.70265	0.646653
540	H	0.41257	0.679664	0.660958
541	C	0.67448	0.366993	0.04067
542	C	0.637837	0.342631	0.041788
543	C	0.624184	0.305711	0.040686
544	C	0.64855	0.293432	0.04175
545	C	0.685469	0.316701	0.37399
546	C	0.69775	0.353346	0.041792
547	H	0.639151	0.266823	0.04173
548	H	0.72436	0.370552	0.041734
549	H	0.620627	0.352031	0.041797
550	C	0.686909	0.403551	0.035331
551	C	0.709597	0.304269	0.368628
552	C	0.587622	0.281589	0.03535
553	O	0.74403	0.326751	0.045266
554	O	0.664443	0.415523	0.045287
555	O	0.575673	0.247153	0.045297
556	C	0.814966	0.12596	0.952328
557	C	0.851606	0.15033	0.951176
558	C	0.865243	0.187246	0.952285
559	C	0.840869	0.199513	0.951209
560	C	0.803951	0.176235	0.285634
561	C	0.791684	0.139593	0.951226
562	H	0.85026	0.226121	0.951209
563	H	0.765074	0.122377	0.951245
564	H	0.868821	0.140936	0.951196
565	C	0.802568	0.089409	0.957683
566	C	0.779789	0.188625	0.290984
567	C	0.901805	0.211377	0.95763
568	O	0.745376	0.166192	0.947552
569	O	0.825006	0.077422	0.947638
570	O	0.913748	0.245813	0.947687
571	C	0.767051	0.232621	0.988435
572	N	0.735468	0.220075	0.300905
573	C	0.712932	0.232453	0.307211
574	C	0.72237	0.260328	0.337747
575	N	0.753954	0.272875	0.025274
576	C	0.776492	0.260504	0.018962
577	O	0.807194	0.275283	0.042796
578	O	0.682228	0.217672	0.283382
579	C	0.802691	0.260391	0.086407
580	H	0.828283	0.2733	0.102892
581	H	0.793319	0.232079	0.085021
582	H	0.784416	0.264954	0.106212
583	C	0.68673	0.232566	0.239773
584	H	0.661132	0.219656	0.22329
585	H	0.705001	0.228006	0.219964
586	H	0.696097	0.260878	0.241163
587	N	0.700872	0.273807	0.346257
588	H	0.677882	0.261799	0.331962
589	N	0.788538	0.219124	0.979948
590	H	0.811518	0.231135	0.99427
591	C	0.758586	0.032669	0.988504
592	N	0.771138	0.013633	0.300989
593	C	0.758762	0.478723	0.307303
594	C	0.730876	0.460284	0.337827
595	N	0.718326	0.479319	0.025344
596	C	0.7307	0.014231	0.019027
597	O	0.715923	0.030157	0.042858
598	O	0.773547	0.462797	0.283481
599	C	0.730812	0.040543	0.08647
600	H	0.717904	0.053232	0.102953
601	H	0.759125	0.059483	0.085086
602	H	0.726245	0.017707	0.106277
603	C	0.758662	0.452407	0.239868
604	H	0.771575	0.439719	0.223392
605	H	0.763225	0.47524	0.220057
606	H	0.73035	0.433463	0.24125
607	N	0.717388	0.425304	0.346333
608	H	0.72941	0.414338	0.332035
609	N	0.772086	0.067651	0.980008
610	H	0.760065	0.07862	0.99431
611	C	0.958519	0.22415	0.988504
612	N	0.977558	0.255732	0.300979
613	C	0.512469	0.278273	0.307297
614	C	0.530901	0.26883	0.337837
615	N	0.511865	0.237247	0.025361
616	C	0.976955	0.21471	0.019045
617	O	0.961031	0.184005	0.042872
618	O	0.528395	0.308977	0.28347
619	C	0.950634	0.188502	0.08648
620	H	0.937947	0.162905	0.102961
621	H	0.93169	0.197869	0.085089
622	H	0.973466	0.206775	0.106293
623	C	0.538786	0.304477	0.239861
624	H	0.551475	0.330075	0.223381
625	H	0.515954	0.286207	0.220049
626	H	0.557728	0.295106	0.241249
627	N	0.565881	0.290324	0.346336
628	H	0.576863	0.313313	0.332041
629	N	0.923543	0.20265	0.979988
630	H	0.912572	0.179664	0.994293
631	C	0.67448	0.366993	0.374004
632	C	0.637837	0.342631	0.375122
633	C	0.624184	0.305711	0.37402
634	C	0.64855	0.293432	0.375083
635	C	0.685469	0.316701	0.707326
636	C	0.69775	0.353346	0.375126
637	H	0.639151	0.266823	0.375063
638	H	0.72436	0.370552	0.375069
639	H	0.620627	0.352031	0.375132
640	C	0.686909	0.403551	0.368665
641	C	0.709597	0.304269	0.701964
642	C	0.587622	0.281589	0.368685
643	O	0.74403	0.326751	0.378601
644	O	0.664443	0.415523	0.378621
645	O	0.575673	0.247153	0.378631
646	C	0.814966	0.12596	0.285662
647	C	0.851606	0.15033	0.28451
648	C	0.865243	0.187246	0.285619
649	C	0.840869	0.199513	0.284541
650	C	0.803951	0.176235	0.618969
651	C	0.791684	0.139593	0.284558
652	H	0.85026	0.226121	0.284541
653	H	0.765074	0.122377	0.284578
654	H	0.868821	0.140936	0.284529
655	C	0.802568	0.089409	0.291015
656	C	0.779789	0.188625	0.624318
657	C	0.901805	0.211377	0.290964
658	O	0.745376	0.166192	0.280885
659	O	0.825006	0.077422	0.280972
660	O	0.913748	0.245813	0.28102
661	C	0.767051	0.232621	0.321767
662	N	0.735468	0.220075	0.634238
663	C	0.712932	0.232453	0.640546
664	C	0.72237	0.260328	0.671083
665	N	0.753954	0.272875	0.358606
666	C	0.776492	0.260504	0.352294
667	O	0.807194	0.275283	0.376128
668	O	0.682228	0.217672	0.616715
669	C	0.802691	0.260391	0.419739
670	H	0.828283	0.2733	0.436226
671	H	0.793319	0.232079	0.418356
672	H	0.784416	0.264954	0.439545
673	C	0.68673	0.232566	0.573108
674	H	0.661132	0.219656	0.556625
675	H	0.705001	0.228006	0.553298
676	H	0.696097	0.260878	0.574495
677	N	0.700872	0.273807	0.679592
678	H	0.677882	0.261799	0.665294
679	N	0.788538	0.219124	0.313281
680	H	0.811518	0.231135	0.327602
681	C	0.758586	0.032669	0.321837
682	N	0.771138	0.013633	0.634324
683	C	0.758762	0.478723	0.640635
684	C	0.730876	0.460284	0.671159
685	N	0.718326	0.479319	0.358676
686	C	0.7307	0.014231	0.35236
687	O	0.715923	0.030157	0.376191
688	O	0.773547	0.462797	0.616814
689	C	0.730812	0.040543	0.419802
690	H	0.717904	0.053232	0.436285
691	H	0.759125	0.059483	0.418418
692	H	0.726245	0.017707	0.439611
693	C	0.758662	0.452407	0.5732
694	H	0.771575	0.439719	0.556727
695	H	0.763225	0.47524	0.553391
696	H	0.73035	0.433463	0.574584
697	N	0.717388	0.425304	0.679669
698	H	0.72941	0.414338	0.66537
699	N	0.772086	0.067651	0.313342
700	H	0.760065	0.07862	0.327642
701	C	0.958519	0.22415	0.321838
702	N	0.977558	0.255732	0.634314
703	C	0.512469	0.278273	0.640632
704	C	0.530901	0.26883	0.671169
705	N	0.511865	0.237247	0.358695
706	C	0.976955	0.21471	0.352377
707	O	0.961031	0.184005	0.376205
708	O	0.528395	0.308977	0.616805
709	C	0.950634	0.188502	0.419812
710	H	0.937947	0.162905	0.436295
711	H	0.93169	0.197869	0.418422
712	H	0.973466	0.206775	0.439628
713	C	0.538786	0.304477	0.573194
714	H	0.551475	0.330075	0.556714
715	H	0.515954	0.286207	0.553381
716	H	0.557728	0.295106	0.574581
717	N	0.565881	0.290324	0.679669
718	H	0.576863	0.313313	0.665377
719	N	0.923543	0.20265	0.31332
720	H	0.912572	0.179664	0.327625
721	C	0.67448	0.366993	0.707336
722	C	0.637837	0.342631	0.708454
723	C	0.624184	0.305711	0.707352
724	C	0.64855	0.293432	0.708418
725	C	0.685469	0.316701	0.040658
726	C	0.69775	0.353346	0.708458
727	H	0.639151	0.266823	0.708398
728	H	0.72436	0.370552	0.708401
729	H	0.620627	0.352031	0.708464
730	C	0.686909	0.403551	0.701997
731	C	0.709597	0.304269	0.035296
732	C	0.587622	0.281589	0.702017
733	O	0.74403	0.326751	0.711933
734	O	0.664443	0.415523	0.711953
735	O	0.575673	0.247153	0.711963
736	C	0.814966	0.12596	0.618996
737	C	0.851606	0.15033	0.617844
738	C	0.865243	0.187246	0.618953
739	C	0.840869	0.199513	0.617874
740	C	0.803951	0.176235	0.952301
741	C	0.791684	0.139593	0.61789
742	H	0.85026	0.226121	0.617874
743	H	0.765074	0.122377	0.61791
744	H	0.868821	0.140936	0.61786
745	C	0.802568	0.089409	0.624348
746	C	0.779789	0.188625	0.95765
747	C	0.901805	0.211377	0.624298
748	O	0.745376	0.166192	0.61422
749	O	0.825006	0.077422	0.614306
750	O	0.913748	0.245813	0.614352
751	C	0.767051	0.232621	0.6551
752	N	0.735468	0.220075	0.967573
753	C	0.712932	0.232453	0.973878
754	C	0.72237	0.260328	0.004416
755	N	0.753954	0.272875	0.691942
756	C	0.776492	0.260504	0.68563
757	O	0.807194	0.275283	0.709464
758	O	0.682228	0.217672	0.950051
759	C	0.802691	0.260391	0.753075
760	H	0.828283	0.2733	0.769561
761	H	0.793319	0.232079	0.751688
762	H	0.784416	0.264954	0.772881
763	C	0.68673	0.232566	0.90644
764	H	0.661132	0.219656	0.889957
765	H	0.705001	0.228006	0.88663
766	H	0.696097	0.260878	0.90783
767	N	0.700872	0.273807	0.012924
768	H	0.677882	0.261799	0.998628
769	N	0.788538	0.219124	0.646613
770	H	0.811518	0.231135	0.660935
771	C	0.758586	0.032669	0.655169
772	N	0.771138	0.013633	0.967656
773	C	0.758762	0.478723	0.973971
774	C	0.730876	0.460284	0.004493
775	N	0.718326	0.479319	0.692011
776	C	0.7307	0.014231	0.685696
777	O	0.715923	0.030157	0.709527
778	O	0.773547	0.462797	0.950147
779	C	0.730812	0.040543	0.753137
780	H	0.717904	0.053232	0.76962
781	H	0.759125	0.059483	0.751754
782	H	0.726245	0.017707	0.772944
783	C	0.758662	0.452407	0.906536
784	H	0.771575	0.439719	0.890059
785	H	0.763225	0.47524	0.886723
786	H	0.73035	0.433463	0.907916
787	N	0.717388	0.425304	0.013
788	H	0.72941	0.414338	0.998702
789	N	0.772086	0.067651	0.646676
790	H	0.760065	0.07862	0.660975
791	C	0.958519	0.22415	0.655172
792	N	0.977558	0.255732	0.967646
793	C	0.512469	0.278273	0.973964
794	C	0.530901	0.26883	0.004502
795	N	0.511865	0.237247	0.692028
796	C	0.976955	0.21471	0.685712
797	O	0.961031	0.184005	0.70954
798	O	0.528395	0.308977	0.950137
799	C	0.950634	0.188502	0.753147
800	H	0.937947	0.162905	0.769627
801	H	0.93169	0.197869	0.751757
802	H	0.973466	0.206775	0.77296
803	C	0.538786	0.304477	0.906529
804	H	0.551475	0.330075	0.890046
805	H	0.515954	0.286207	0.886716
806	H	0.557728	0.295106	0.907916
807	N	0.565881	0.290324	0.013002
808	H	0.576863	0.313313	0.998708
809	N	0.923543	0.20265	0.646653
810	H	0.912572	0.179664	0.660958
811	C	0.674478	0.866993	0.04067
812	C	0.637836	0.842631	0.041788
813	C	0.624184	0.805711	0.040686
814	C	0.648553	0.793435	0.04175
815	C	0.685468	0.816701	0.37399
816	C	0.697749	0.853346	0.041792
817	H	0.63915	0.766823	0.04173
818	H	0.724359	0.870552	0.041734
819	H	0.620628	0.852031	0.041797
820	C	0.686908	0.903551	0.035331
821	C	0.709596	0.804269	0.368628
822	C	0.587621	0.781589	0.03535
823	O	0.744029	0.826751	0.045266
824	O	0.664442	0.915524	0.045287
825	O	0.575672	0.747154	0.045297
826	C	0.814965	0.62596	0.952328
827	C	0.851605	0.65033	0.951176
828	C	0.865245	0.687247	0.952285
829	C	0.840868	0.699513	0.951209
830	C	0.80395	0.676234	0.285634
831	C	0.791685	0.639593	0.951226
832	H	0.850262	0.726122	0.951209
833	H	0.765075	0.622377	0.951245
834	H	0.868819	0.640935	0.951196
835	C	0.802567	0.589409	0.957683
836	C	0.779791	0.688626	0.290984
837	C	0.901804	0.711377	0.95763
838	O	0.745377	0.666192	0.947552
839	O	0.825004	0.577421	0.947638
840	O	0.913746	0.745812	0.947687
841	C	0.767051	0.732623	0.988435
842	N	0.735467	0.720075	0.300905
843	C	0.712932	0.732454	0.307211
844	C	0.722371	0.760327	0.337747
845	N	0.753952	0.772875	0.025274
846	C	0.776494	0.760504	0.018962
847	O	0.807195	0.775284	0.042796
848	O	0.682227	0.717672	0.283382
849	C	0.802689	0.760391	0.086407
850	H	0.828285	0.773301	0.102892
851	H	0.793319	0.732079	0.085021
852	H	0.784415	0.764954	0.106212
853	C	0.686729	0.732567	0.239773
854	H	0.661133	0.719655	0.22329
855	H	0.705003	0.728007	0.219964
856	H	0.696096	0.760877	0.241163
857	N	0.700871	0.773808	0.346257
858	H	0.677884	0.761801	0.331962
859	N	0.788537	0.719124	0.979948
860	H	0.811517	0.731136	0.99427
861	C	0.758587	0.532669	0.988504
862	N	0.771139	0.513633	0.30099
863	C	0.758764	0.978723	0.307303
864	C	0.730877	0.960284	0.337827
865	N	0.718326	0.97932	0.025343
866	C	0.730698	0.51423	0.019027
867	O	0.715922	0.530158	0.042858
868	O	0.773545	0.962798	0.283481
869	C	0.730811	0.540543	0.08647
870	H	0.717905	0.553231	0.102953
871	H	0.759127	0.559484	0.085086
872	H	0.726247	0.517708	0.106277
873	C	0.758663	0.952407	0.239868
874	H	0.771575	0.939722	0.223392
875	H	0.763226	0.97524	0.220057
876	H	0.730351	0.933464	0.241249
877	N	0.717387	0.925304	0.346333
878	H	0.729409	0.914338	0.332035
879	N	0.772085	0.567651	0.980008
880	H	0.760064	0.57862	0.99431
881	C	0.95852	0.724149	0.988504
882	N	0.977557	0.755733	0.300979
883	C	0.512468	0.778273	0.307297
884	C	0.530902	0.76883	0.337837
885	N	0.511865	0.737246	0.025361
886	C	0.976954	0.714709	0.019045
887	O	0.96103	0.684005	0.042872
888	O	0.528394	0.808977	0.28347
889	C	0.950632	0.688502	0.08648
890	H	0.937947	0.662907	0.102961
891	H	0.93169	0.69787	0.085089
892	H	0.973464	0.706774	0.106293
893	C	0.538787	0.804478	0.239861
894	H	0.551475	0.830075	0.223381
895	H	0.515954	0.786208	0.220049
896	H	0.557729	0.795109	0.241249
897	N	0.565882	0.790324	0.346336
898	H	0.576862	0.813313	0.332041
899	N	0.923544	0.70265	0.979988
900	H	0.91257	0.679664	0.994293
901	C	0.674478	0.866993	0.374004
902	C	0.637836	0.842631	0.375122
903	C	0.624184	0.805711	0.37402
904	C	0.648553	0.793435	0.375083
905	C	0.685468	0.816701	0.707326
906	C	0.697749	0.853346	0.375126
907	H	0.63915	0.766823	0.375063
908	H	0.724359	0.870552	0.375069
909	H	0.620628	0.852031	0.375132
910	C	0.686908	0.903551	0.368665
911	C	0.709596	0.804269	0.701964
912	C	0.587621	0.781589	0.368685
913	O	0.744029	0.826751	0.378601
914	O	0.664442	0.915524	0.378621
915	O	0.575672	0.747154	0.378631
916	C	0.814965	0.62596	0.285662
917	C	0.851605	0.65033	0.28451
918	C	0.865245	0.687247	0.285619
919	C	0.840868	0.699513	0.284541
920	C	0.80395	0.676234	0.618969
921	C	0.791685	0.639593	0.284558
922	H	0.850262	0.726122	0.284541
923	H	0.765075	0.622377	0.284578
924	H	0.868819	0.640935	0.284529
925	C	0.802567	0.589409	0.291015
926	C	0.779791	0.688626	0.624318
927	C	0.901804	0.711377	0.290964
928	O	0.745377	0.666192	0.280885
929	O	0.825004	0.577421	0.280972
930	O	0.913746	0.745812	0.28102
931	C	0.767051	0.732623	0.321767
932	N	0.735467	0.720075	0.634238
933	C	0.712932	0.732454	0.640546
934	C	0.722371	0.760327	0.671083
935	N	0.753952	0.772875	0.358606
936	C	0.776494	0.760504	0.352294
937	O	0.807195	0.775284	0.376128
938	O	0.682227	0.717672	0.616715
939	C	0.802689	0.760391	0.419739
940	H	0.828285	0.773301	0.436226
941	H	0.793319	0.732079	0.418356
942	H	0.784415	0.764954	0.439545
943	C	0.686729	0.732567	0.573108
944	H	0.661133	0.719655	0.556625
945	H	0.705003	0.728007	0.553298
946	H	0.696096	0.760877	0.574495
947	N	0.700871	0.773808	0.679589
948	H	0.677884	0.761801	0.665294
949	N	0.788537	0.719124	0.313281
950	H	0.811517	0.731136	0.327602
951	C	0.758587	0.532669	0.321837
952	N	0.771139	0.513633	0.634324
953	C	0.758764	0.978723	0.640635
954	C	0.730877	0.960284	0.671159
955	N	0.718326	0.97932	0.358676
956	C	0.730698	0.51423	0.35236
957	O	0.715922	0.530158	0.376191
958	O	0.773545	0.962798	0.616814
959	C	0.730811	0.540543	0.419802
960	H	0.717905	0.553231	0.436285
961	H	0.759127	0.559484	0.418418
962	H	0.726247	0.517708	0.439611
963	C	0.758663	0.952407	0.5732
964	H	0.771575	0.939722	0.556724
965	H	0.763226	0.97524	0.553391
966	H	0.730351	0.933464	0.574584
967	N	0.717387	0.925304	0.679669
968	H	0.729409	0.914338	0.66537
969	N	0.772085	0.567651	0.313342
970	H	0.760064	0.57862	0.327642
971	C	0.95852	0.724149	0.321838
972	N	0.977557	0.755733	0.634314
973	C	0.512468	0.778273	0.640632
974	C	0.530902	0.76883	0.671169
975	N	0.511865	0.737246	0.358695
976	C	0.976954	0.714709	0.352377
977	O	0.96103	0.684005	0.376205
978	O	0.528394	0.808977	0.616805
979	C	0.950632	0.688502	0.419812
980	H	0.937947	0.662907	0.436295
981	H	0.93169	0.69787	0.418422
982	H	0.973464	0.706774	0.439628
983	C	0.538787	0.804478	0.573194
984	H	0.551475	0.830075	0.556714
985	H	0.515954	0.786208	0.553381
986	H	0.557729	0.795109	0.574581
987	N	0.565882	0.790324	0.679669
988	H	0.576862	0.813313	0.665377
989	N	0.923544	0.70265	0.31332
990	H	0.91257	0.679664	0.327625
991	C	0.674478	0.866993	0.707336
992	C	0.637836	0.842631	0.708454
993	C	0.624184	0.805711	0.707352
994	C	0.648553	0.793435	0.708418
995	C	0.685468	0.816701	0.040658
996	C	0.697749	0.853346	0.708458
997	H	0.63915	0.766823	0.708398
998	H	0.724359	0.870552	0.708401
999	H	0.620628	0.852031	0.708464
1000	C	0.686908	0.903551	0.701997
1001	C	0.709596	0.804269	0.035296
1002	C	0.587621	0.781589	0.702017
1003	O	0.744029	0.826751	0.711933
1004	O	0.664442	0.915524	0.711953
1005	O	0.575672	0.747154	0.711963
1006	C	0.814965	0.62596	0.618996
1007	C	0.851605	0.65033	0.617844
1008	C	0.865245	0.687247	0.618953
1009	C	0.840868	0.699513	0.617874
1010	C	0.80395	0.676234	0.952301
1011	C	0.791685	0.639593	0.61789
1012	H	0.850262	0.726122	0.617874
1013	H	0.765075	0.622377	0.61791
1014	H	0.868819	0.640935	0.617864
1015	C	0.802567	0.589409	0.624348
1016	C	0.779791	0.688626	0.95765
1017	C	0.901804	0.711377	0.624298
1018	O	0.745377	0.666192	0.61422
1019	O	0.825004	0.577421	0.614306
1020	O	0.913746	0.745812	0.614352
1021	C	0.767051	0.732623	0.6551
1022	N	0.735467	0.720075	0.967573
1023	C	0.712932	0.732454	0.973878
1024	C	0.722371	0.760327	0.004416
1025	N	0.753952	0.772875	0.691942
1026	C	0.776494	0.760504	0.68563
1027	O	0.807195	0.775284	0.709464
1028	O	0.682227	0.717672	0.950051
1029	C	0.802689	0.760391	0.753075
1030	H	0.828285	0.773301	0.769561
1031	H	0.793319	0.732079	0.751688
1032	H	0.784415	0.764954	0.772881
1033	C	0.686729	0.732567	0.90644
1034	H	0.661133	0.719655	0.889957
1035	H	0.705003	0.728007	0.88663
1036	H	0.696096	0.760877	0.90783
1037	N	0.700871	0.773808	0.012924
1038	H	0.677884	0.761801	0.998628
1039	N	0.788537	0.719124	0.646613
1040	H	0.811517	0.731136	0.660935
1041	C	0.758587	0.532669	0.655169
1042	N	0.771139	0.513633	0.967656
1043	C	0.758764	0.978723	0.973971
1044	C	0.730877	0.960284	0.004493
1045	N	0.718326	0.97932	0.692011
1046	C	0.730698	0.51423	0.685696
1047	O	0.715922	0.530158	0.709527
1048	O	0.773545	0.962798	0.950147
1049	C	0.730811	0.540543	0.753137
1050	H	0.717905	0.553231	0.76962
1051	H	0.759127	0.559484	0.751754
1052	H	0.726247	0.517708	0.772944
1053	C	0.758663	0.952407	0.906536
1054	H	0.771575	0.939722	0.890059
1055	H	0.763226	0.97524	0.886723
1056	H	0.730351	0.933464	0.907916
1057	N	0.717387	0.925304	0.013
1058	H	0.729409	0.914338	0.998702
1059	N	0.772085	0.567651	0.646676
1060	H	0.760064	0.57862	0.660975
1061	C	0.95852	0.724149	0.655172
1062	N	0.977557	0.755733	0.967646
1063	C	0.512468	0.778273	0.973964
1064	C	0.530902	0.76883	0.004502
1065	N	0.511865	0.737246	0.692028
1066	C	0.976954	0.714709	0.685712
1067	O	0.96103	0.684005	0.70954
1068	O	0.528394	0.808977	0.950137
1069	C	0.950632	0.688502	0.753147
1070	H	0.937947	0.662907	0.769627
1071	H	0.93169	0.69787	0.751757
1072	H	0.973464	0.706774	0.77296
1073	C	0.538787	0.804478	0.906529
1074	H	0.551475	0.830075	0.890046
1075	H	0.515954	0.786208	0.886716
1076	H	0.557729	0.795109	0.907916
1077	N	0.565882	0.790324	0.013002
1078	H	0.576862	0.813313	0.998708
1079	N	0.923544	0.70265	0.646653
1080	H	0.91257	0.679664	0.660958
