data_C792H360N144O144_2018-02-15_10:35:33
#******************************************
#
# CIF file created by Zeo++
# Zeo++ is an open source package to
# analyze microporous materials
#
#*******************************************

_cell_length_a		46.4476   
_cell_length_b		46.4476   
_cell_length_c		29.6134   
_cell_angle_alpha		90   
_cell_angle_beta		90   
_cell_angle_gamma		120   

_symmetry_space_group_name_H-M		'P1'
_symmetry_Int_Tables_number		1
_symmetry_cell_setting		Monoclinic

loop_
_symmetry_equiv_pos_as_xyz
'+x,+y,+z'

loop_
_atom_site_label
_atom_site_type_symbol
_atom_site_fract_x
_atom_site_fract_y
_atom_site_fract_z
1	H	0.139725	0.320708	0.039075
2	N	0.115256	0.248217	0.04304
3	O	0.138448	0.241873	0.122883
4	C	0.116211	0.372462	0.046465
5	C	0.104974	0.359907	0.089453
6	O	0.117417	0.377978	0.122213
7	H	0.080948	0.343497	0.092477
8	C	0.027809	0.265463	0.006866
9	C	0.0472	0.301068	0.007396
10	H	0.036149	0.315216	0.008358
11	H	0.139723	0.820705	0.039075
12	N	0.115257	0.748215	0.04304
13	O	0.138449	0.741873	0.122883
14	C	0.11621	0.872462	0.046465
15	C	0.104975	0.859908	0.089453
16	O	0.117417	0.877976	0.122213
17	H	0.080946	0.843495	0.092477
18	C	0.027809	0.765463	0.006866
19	C	0.0472	0.801068	0.007396
20	H	0.036149	0.815216	0.008358
21	H	0.195491	0.322127	0.039437
22	H	0.193995	0.376462	0.038045
23	C	0.161944	0.249955	0.006684
24	C	0.143745	0.246631	0.046937
25	C	0.156205	0.247474	0.089765
26	H	0.172958	0.240291	0.092938
27	N	0.146245	0.400989	0.04232
28	C	0.253258	0.097838	0.00678
29	N	0.251516	0.142918	0.042918
30	C	0.249936	0.112851	0.046905
31	C	0.250754	0.10129	0.089781
32	O	0.245111	0.113469	0.122836
33	H	0.243607	0.077366	0.093026
34	C	0.250779	0.265555	0.006905
35	C	0.215176	0.249329	0.007626
36	C	0.197159	0.266475	0.006725
37	H	0.201049	0.224131	0.008717
38	O	0.198116	0.318612	0.007295
39	C	0.250663	0.488515	0.006791
40	C	0.252605	0.043988	0.007658
41	H	0.227407	0.032934	0.00876
42	H	0.195492	0.822127	0.039437
43	H	0.193997	0.876462	0.038045
44	C	0.161945	0.749955	0.006684
45	C	0.143745	0.746632	0.046937
46	C	0.156206	0.747474	0.089765
47	H	0.172959	0.740292	0.092938
48	N	0.146244	0.900989	0.04232
49	C	0.253258	0.597838	0.00678
50	N	0.251515	0.642917	0.042918
51	C	0.249936	0.612851	0.046905
52	C	0.250755	0.601291	0.089781
53	O	0.24511	0.613467	0.122835
54	H	0.243606	0.577365	0.093026
55	C	0.25078	0.765555	0.006905
56	C	0.215176	0.749329	0.007627
57	C	0.197159	0.766475	0.006725
58	H	0.201049	0.724131	0.008717
59	O	0.198116	0.818612	0.007295
60	C	0.250661	0.988512	0.006791
61	C	0.252604	0.543988	0.007658
62	H	0.227407	0.532933	0.00876
63	C	0.027809	0.265463	0.3402
64	C	0.0472	0.301068	0.34073
65	C	0.082361	0.319067	0.339873
66	C	0.099593	0.301202	0.339481
67	C	0.082202	0.266102	0.005172
68	C	0.047041	0.249085	0.005834
69	H	0.036149	0.315216	0.341693
70	O	0.133533	0.31811	0.340285
71	H	0.035844	0.223875	0.00475
72	C	0.118706	0.251979	0.297461
73	C	0.100672	0.249441	0.003781
74	H	0.112426	0.257878	0.267147
75	C	0.101105	0.354269	0.006232
76	N	0.11792	0.367684	0.300434
77	C	0.027809	0.265463	0.673532
78	C	0.0472	0.301068	0.674062
79	C	0.082361	0.319067	0.673208
80	C	0.099593	0.301202	0.672816
81	C	0.082202	0.266102	0.338505
82	C	0.047041	0.249085	0.339164
83	H	0.036149	0.315216	0.675025
84	O	0.133533	0.31811	0.67362
85	H	0.139725	0.320708	0.372409
86	H	0.035844	0.223875	0.33808
87	C	0.118706	0.251979	0.630795
88	C	0.100672	0.249441	0.337114
89	N	0.115256	0.248217	0.376373
90	H	0.112426	0.257878	0.600481
91	O	0.138448	0.241873	0.456215
92	C	0.101105	0.354269	0.339565
93	N	0.11792	0.367684	0.633766
94	C	0.116211	0.372462	0.379801
95	C	0.104974	0.359907	0.422788
96	O	0.117417	0.377978	0.455547
97	H	0.080948	0.343497	0.42581
98	C	0.082361	0.319067	0.00654
99	C	0.099593	0.301202	0.006148
100	C	0.082202	0.266102	0.671837
101	C	0.047041	0.249085	0.672499
102	O	0.133533	0.31811	0.006953
103	H	0.139725	0.320708	0.705744
104	H	0.035844	0.223875	0.671415
105	C	0.118706	0.251979	0.96413
106	C	0.100672	0.249441	0.670449
107	N	0.115256	0.248217	0.709708
108	H	0.112426	0.257878	0.933816
109	O	0.138448	0.241873	0.78955
110	C	0.101105	0.354269	0.672897
111	N	0.11792	0.367684	0.967101
112	C	0.116211	0.372462	0.713132
113	C	0.104974	0.359907	0.75612
114	O	0.117417	0.377978	0.788882
115	H	0.080948	0.343497	0.759145
116	C	0.027809	0.765463	0.3402
117	C	0.0472	0.801068	0.34073
118	C	0.082363	0.819067	0.339873
119	C	0.099593	0.801202	0.339481
120	C	0.082202	0.766102	0.005172
121	C	0.047042	0.749085	0.005834
122	H	0.036149	0.815216	0.341693
123	O	0.133534	0.81811	0.340285
124	H	0.035843	0.723875	0.00475
125	C	0.118706	0.751979	0.297461
126	C	0.100672	0.749441	0.003781
127	H	0.112425	0.757876	0.267147
128	C	0.101105	0.854269	0.006232
129	N	0.11792	0.867684	0.300434
130	C	0.027809	0.765463	0.673532
131	C	0.0472	0.801068	0.674062
132	C	0.082363	0.819067	0.673208
133	C	0.099593	0.801202	0.672816
134	C	0.082202	0.766102	0.338505
135	C	0.047042	0.749085	0.339164
136	H	0.036149	0.815216	0.675025
137	O	0.133534	0.81811	0.67362
138	H	0.139723	0.820705	0.372409
139	H	0.035843	0.723875	0.33808
140	C	0.118706	0.751979	0.630795
141	C	0.100672	0.749441	0.337114
142	N	0.115257	0.748215	0.376373
143	H	0.112425	0.757876	0.600481
144	O	0.138449	0.741873	0.456215
145	C	0.101105	0.854269	0.339565
146	N	0.11792	0.867684	0.633766
147	C	0.11621	0.872462	0.379801
148	C	0.104975	0.859908	0.422788
149	O	0.117417	0.877976	0.455547
150	H	0.080946	0.843495	0.42581
151	C	0.082363	0.819067	0.00654
152	C	0.099593	0.801202	0.006148
153	C	0.082202	0.766102	0.671837
154	C	0.047042	0.749085	0.672499
155	O	0.133534	0.81811	0.006953
156	H	0.139723	0.820705	0.705744
157	H	0.035843	0.723875	0.671415
158	C	0.118706	0.751979	0.96413
159	C	0.100672	0.749441	0.670449
160	N	0.115257	0.748215	0.709708
161	H	0.112425	0.757876	0.933816
162	O	0.138449	0.741873	0.78955
163	C	0.101105	0.854269	0.672897
164	N	0.11792	0.867684	0.967101
165	C	0.11621	0.872462	0.713132
166	C	0.104975	0.859908	0.75612
167	O	0.117417	0.877976	0.788882
168	H	0.080946	0.843495	0.759145
169	C	0.250779	0.265555	0.340237
170	C	0.215176	0.249329	0.34096
171	C	0.197159	0.266475	0.340058
172	C	0.215019	0.301578	0.339714
173	C	0.250116	0.319291	0.005273
174	H	0.201049	0.224131	0.342051
175	O	0.198116	0.318612	0.340629
176	C	0.2524	0.211848	0.005733
177	H	0.227192	0.197821	0.004645
178	C	0.250663	0.488515	0.340126
179	C	0.249693	0.433959	0.339528
180	C	0.214596	0.416736	0.338768
181	C	0.196898	0.43414	0.004652
182	C	0.215055	0.469298	0.005489
183	O	0.197538	0.382789	0.339302
184	C	0.252605	0.043988	0.34099
185	H	0.227407	0.032934	0.342095
186	H	0.201054	0.480505	0.004348
187	N	0.148692	0.253796	0.301002
188	C	0.146045	0.39768	0.296764
189	C	0.161774	0.415701	0.002933
190	H	0.158036	0.404181	0.266322
191	C	0.255362	0.143093	0.297287
192	C	0.252779	0.158593	0.003531
193	C	0.250779	0.265555	0.673573
194	C	0.215176	0.249329	0.674295
195	C	0.197159	0.266475	0.673394
196	C	0.215019	0.301578	0.673049
197	C	0.250116	0.319291	0.338603
198	H	0.201049	0.224131	0.675386
199	O	0.198116	0.318612	0.673961
200	C	0.2524	0.211848	0.339066
201	H	0.195491	0.322127	0.37277
202	H	0.227192	0.197821	0.337975
203	C	0.250663	0.488515	0.673458
204	C	0.249693	0.433959	0.67286
205	C	0.214596	0.416736	0.6721
206	C	0.196898	0.43414	0.337985
207	C	0.215055	0.469298	0.338823
208	O	0.197538	0.382789	0.672634
209	C	0.252605	0.043988	0.674326
210	H	0.227407	0.032934	0.675426
211	H	0.193995	0.376462	0.371379
212	H	0.201054	0.480505	0.33768
213	C	0.161944	0.249955	0.340018
214	N	0.148692	0.253796	0.634334
215	C	0.143745	0.246631	0.38027
216	C	0.156205	0.247474	0.423098
217	H	0.172958	0.240291	0.426273
218	C	0.146045	0.39768	0.630096
219	C	0.161774	0.415701	0.336266
220	N	0.146245	0.400989	0.375654
221	H	0.158036	0.404181	0.599657
222	C	0.253258	0.097838	0.340112
223	C	0.255362	0.143093	0.630619
224	C	0.252779	0.158593	0.336865
225	N	0.251516	0.142918	0.376251
226	C	0.249936	0.112851	0.38024
227	C	0.250754	0.10129	0.423115
228	O	0.245111	0.113469	0.456168
229	H	0.243607	0.077366	0.42636
230	C	0.215019	0.301578	0.006384
231	C	0.250116	0.319291	0.671938
232	C	0.2524	0.211848	0.672397
233	H	0.195491	0.322127	0.706105
234	H	0.227192	0.197821	0.67131
235	C	0.249693	0.433959	0.006195
236	C	0.214596	0.416736	0.005435
237	C	0.196898	0.43414	0.67132
238	C	0.215055	0.469298	0.672158
239	O	0.197538	0.382789	0.005969
240	H	0.193995	0.376462	0.704714
241	H	0.201054	0.480505	0.671013
242	C	0.161944	0.249955	0.673353
243	N	0.148692	0.253796	0.967669
244	C	0.143745	0.246631	0.713605
245	C	0.156205	0.247474	0.756434
246	H	0.172958	0.240291	0.759604
247	C	0.146045	0.39768	0.963431
248	C	0.161774	0.415701	0.669601
249	N	0.146245	0.400989	0.708989
250	H	0.158036	0.404181	0.932989
251	C	0.253258	0.097838	0.673448
252	C	0.255362	0.143093	0.963954
253	C	0.252779	0.158593	0.670199
254	N	0.251516	0.142918	0.709587
255	C	0.249936	0.112851	0.713571
256	C	0.250754	0.10129	0.756447
257	O	0.245111	0.113469	0.789503
258	H	0.243607	0.077366	0.759692
259	C	0.25078	0.765555	0.340237
260	C	0.215176	0.749329	0.34096
261	C	0.197159	0.766475	0.340058
262	C	0.215018	0.801575	0.339714
263	C	0.250116	0.819291	0.005273
264	H	0.201049	0.724131	0.342051
265	O	0.198116	0.818612	0.340629
266	C	0.252399	0.711847	0.005733
267	H	0.227193	0.697821	0.004645
268	C	0.250661	0.988512	0.340126
269	C	0.249694	0.933959	0.339525
270	C	0.214596	0.916736	0.338768
271	C	0.196897	0.93414	0.004652
272	C	0.215055	0.969298	0.005489
273	O	0.197539	0.882789	0.339302
274	C	0.252604	0.543988	0.34099
275	H	0.227407	0.532933	0.342095
276	H	0.201053	0.980505	0.004348
277	N	0.148693	0.753796	0.301002
278	C	0.146045	0.89768	0.296764
279	C	0.161775	0.915702	0.002933
280	H	0.158037	0.904181	0.266322
281	C	0.255362	0.643093	0.297287
282	C	0.252778	0.658591	0.003531
283	C	0.25078	0.765555	0.673573
284	C	0.215176	0.749329	0.674295
285	C	0.197159	0.766475	0.673394
286	C	0.215018	0.801575	0.673049
287	C	0.250116	0.819291	0.338603
288	H	0.201049	0.724131	0.675386
289	O	0.198116	0.818612	0.673961
290	C	0.252399	0.711847	0.339066
291	H	0.195492	0.822127	0.37277
292	H	0.227193	0.697821	0.337975
293	C	0.250661	0.988512	0.673458
294	C	0.249694	0.933959	0.67286
295	C	0.214596	0.916736	0.6721
296	C	0.196897	0.93414	0.337985
297	C	0.215055	0.969298	0.338823
298	O	0.197539	0.882789	0.672634
299	C	0.252604	0.543988	0.674326
300	H	0.227407	0.532933	0.675426
301	H	0.193997	0.876462	0.371379
302	H	0.201053	0.980505	0.33768
303	C	0.161945	0.749955	0.340018
304	N	0.148693	0.753796	0.634334
305	C	0.143745	0.746632	0.38027
306	C	0.156206	0.747474	0.423098
307	H	0.172959	0.740292	0.426273
308	C	0.146045	0.89768	0.630096
309	C	0.161775	0.915702	0.336266
310	N	0.146244	0.900989	0.375654
311	H	0.158037	0.904181	0.599657
312	C	0.253258	0.597838	0.340112
313	C	0.255362	0.643093	0.630619
314	C	0.252778	0.658591	0.336865
315	N	0.251515	0.642917	0.376251
316	C	0.249936	0.612851	0.38024
317	C	0.250755	0.601291	0.423115
318	O	0.24511	0.613467	0.456168
319	H	0.243606	0.577365	0.42636
320	C	0.215018	0.801575	0.006384
321	C	0.250116	0.819291	0.671938
322	C	0.252399	0.711847	0.672397
323	H	0.195492	0.822127	0.706105
324	H	0.227193	0.697821	0.67131
325	C	0.249694	0.933959	0.006195
326	C	0.214596	0.916736	0.005435
327	C	0.196897	0.93414	0.67132
328	C	0.215055	0.969298	0.672158
329	O	0.197539	0.882789	0.005969
330	H	0.193997	0.876462	0.704714
331	H	0.201053	0.980505	0.671013
332	C	0.161945	0.749955	0.673353
333	N	0.148693	0.753796	0.967669
334	C	0.143745	0.746632	0.713605
335	C	0.156206	0.747474	0.756434
336	H	0.172959	0.740292	0.759604
337	C	0.146045	0.89768	0.963431
338	C	0.161775	0.915702	0.669601
339	N	0.146244	0.900989	0.708989
340	H	0.158037	0.904181	0.932989
341	C	0.253258	0.597838	0.673448
342	C	0.255362	0.643093	0.963954
343	C	0.252778	0.658591	0.670199
344	N	0.251515	0.642917	0.709587
345	C	0.249936	0.612851	0.713571
346	C	0.250755	0.601291	0.756447
347	O	0.24511	0.613467	0.789503
348	H	0.243606	0.577365	0.759692
349	N	0.257165	0.11493	0.301044
350	N	0.257165	0.11493	0.634377
351	N	0.257165	0.11493	0.967713
352	N	0.257165	0.614929	0.301044
353	N	0.257165	0.614929	0.634377
354	N	0.257165	0.614929	0.967713
355	N	0.267775	0.370294	0.042787
356	C	0.269364	0.400382	0.046557
357	C	0.268275	0.41197	0.089372
358	O	0.275576	0.400641	0.121868
359	H	0.275075	0.435786	0.092383
360	C	0.268755	0.247454	0.006853
361	C	0.30436	0.263693	0.007434
362	C	0.266862	0.469114	0.007478
363	H	0.292053	0.480159	0.008844
364	C	0.268806	0.024592	0.006908
365	C	0.304874	0.096374	0.006528
366	C	0.269771	0.079149	0.006813
367	N	0.267775	0.870294	0.042787
368	C	0.269365	0.900383	0.046557
369	C	0.268276	0.91197	0.089372
370	O	0.275576	0.900641	0.121868
371	H	0.275075	0.935786	0.092383
372	C	0.268755	0.747455	0.006853
373	C	0.304359	0.763691	0.007434
374	C	0.266862	0.969114	0.007478
375	H	0.292053	0.980159	0.008844
376	C	0.268807	0.524592	0.006908
377	C	0.304873	0.596374	0.006527
378	C	0.269771	0.579148	0.006813
379	C	0.267143	0.30116	0.005699
380	C	0.268755	0.247454	0.340187
381	C	0.269441	0.193732	0.004996
382	C	0.304542	0.211463	0.339282
383	C	0.30436	0.263693	0.340768
384	H	0.292345	0.315181	0.004446
385	C	0.266862	0.469114	0.340811
386	H	0.292053	0.480159	0.342176
387	C	0.268806	0.024592	0.340241
388	C	0.304415	0.043815	0.005699
389	C	0.304874	0.096374	0.339863
390	C	0.269771	0.079149	0.340146
391	C	0.266134	0.415199	0.006134
392	N	0.262587	0.398093	0.300572
393	C	0.264404	0.369921	0.297293
394	C	0.266775	0.354403	0.003686
395	H	0.258863	0.357769	0.266966
396	H	0.261335	0.15525	0.266956
397	C	0.267143	0.30116	0.339032
398	C	0.268755	0.247454	0.673522
399	C	0.269441	0.193732	0.338326
400	C	0.304542	0.211463	0.672614
401	C	0.30436	0.263693	0.674103
402	H	0.292345	0.315181	0.337779
403	C	0.266862	0.469114	0.674147
404	H	0.292053	0.480159	0.675511
405	C	0.268806	0.024592	0.673576
406	C	0.304415	0.043815	0.339032
407	C	0.304874	0.096374	0.673194
408	C	0.269771	0.079149	0.673481
409	C	0.266134	0.415199	0.339467
410	N	0.262587	0.398093	0.633905
411	C	0.264404	0.369921	0.630626
412	C	0.266775	0.354403	0.337017
413	N	0.267775	0.370294	0.37612
414	C	0.269364	0.400382	0.379892
415	H	0.258863	0.357769	0.600298
416	C	0.268275	0.41197	0.422707
417	O	0.275576	0.400641	0.455202
418	H	0.275075	0.435786	0.425715
419	H	0.261335	0.15525	0.600292
420	C	0.267143	0.30116	0.672364
421	C	0.269441	0.193732	0.671661
422	C	0.304542	0.211463	0.005949
423	H	0.292345	0.315181	0.671114
424	C	0.304415	0.043815	0.672367
425	C	0.266134	0.415199	0.672799
426	N	0.262587	0.398093	0.96724
427	C	0.264404	0.369921	0.963961
428	C	0.266775	0.354403	0.670351
429	N	0.267775	0.370294	0.709455
430	C	0.269364	0.400382	0.713223
431	H	0.258863	0.357769	0.933634
432	C	0.268275	0.41197	0.756038
433	O	0.275576	0.400641	0.788534
434	H	0.275075	0.435786	0.759051
435	H	0.261335	0.15525	0.933623
436	C	0.267143	0.80116	0.005699
437	C	0.268755	0.747455	0.340187
438	C	0.269441	0.693731	0.004996
439	C	0.304541	0.711462	0.339282
440	C	0.304359	0.763691	0.340768
441	H	0.292346	0.815181	0.004446
442	C	0.266862	0.969114	0.340811
443	H	0.292053	0.980159	0.342176
444	C	0.268807	0.524592	0.340241
445	C	0.304415	0.543814	0.005699
446	C	0.304873	0.596374	0.339863
447	C	0.269771	0.579148	0.340146
448	C	0.266133	0.915197	0.006134
449	N	0.262588	0.898093	0.300572
450	C	0.264405	0.869921	0.297293
451	C	0.266774	0.854401	0.003686
452	H	0.258863	0.85777	0.266966
453	H	0.261335	0.65525	0.266956
454	C	0.267143	0.80116	0.339032
455	C	0.268755	0.747455	0.673522
456	C	0.269441	0.693731	0.338326
457	C	0.304541	0.711462	0.672614
458	C	0.304359	0.763691	0.674103
459	H	0.292346	0.815181	0.337779
460	C	0.266862	0.969114	0.674147
461	H	0.292053	0.980159	0.675511
462	C	0.268807	0.524592	0.673576
463	C	0.304415	0.543814	0.339032
464	C	0.304873	0.596374	0.673194
465	C	0.269771	0.579148	0.673481
466	C	0.266133	0.915197	0.339467
467	N	0.262588	0.898093	0.633905
468	C	0.264405	0.869921	0.630626
469	C	0.266774	0.854401	0.337017
470	N	0.267775	0.870294	0.37612
471	C	0.269365	0.900383	0.379892
472	H	0.258863	0.85777	0.600298
473	C	0.268276	0.91197	0.422707
474	O	0.275576	0.900641	0.455202
475	H	0.275075	0.935786	0.425715
476	H	0.261335	0.65525	0.600292
477	C	0.267143	0.80116	0.672364
478	C	0.269441	0.693731	0.671661
479	C	0.304541	0.711462	0.005949
480	H	0.292346	0.815181	0.671114
481	C	0.304415	0.543814	0.672367
482	C	0.266133	0.915197	0.672799
483	N	0.262588	0.898093	0.96724
484	C	0.264405	0.869921	0.963961
485	C	0.266774	0.854401	0.670351
486	N	0.267775	0.870294	0.709455
487	C	0.269365	0.900383	0.713223
488	H	0.258863	0.85777	0.933634
489	C	0.268276	0.91197	0.756038
490	O	0.275576	0.900641	0.788534
491	H	0.275075	0.935786	0.759051
492	H	0.261335	0.65525	0.933623
493	H	0.379731	0.192221	0.038087
494	H	0.324084	0.190905	0.038943
495	H	0.325392	0.136419	0.039658
496	N	0.404375	0.264722	0.04223
497	C	0.375932	0.266366	0.046399
498	C	0.363553	0.265292	0.089348
499	O	0.381432	0.27093	0.122337
500	H	0.346671	0.272285	0.092778
501	N	0.373521	0.112168	0.042899
502	C	0.403627	0.140666	0.046596
503	C	0.4153	0.153355	0.089379
504	O	0.404043	0.134725	0.121886
505	H	0.439119	0.170378	0.092312
506	C	0.491728	0.247504	0.006772
507	C	0.472323	0.211899	0.007424
508	H	0.483371	0.197756	0.008728
509	H	0.318482	0.288889	0.008582
510	O	0.321919	0.13031	0.007503
511	H	0.37973	0.69222	0.038087
512	H	0.324085	0.690905	0.038943
513	H	0.325392	0.636419	0.039658
514	N	0.404375	0.764722	0.04223
515	C	0.375933	0.766366	0.046399
516	C	0.363553	0.765292	0.089348
517	O	0.381433	0.77093	0.122337
518	H	0.346671	0.772282	0.092778
519	N	0.373521	0.612167	0.042899
520	C	0.403628	0.640667	0.046596
521	C	0.415299	0.653353	0.089379
522	O	0.404043	0.634726	0.121886
523	H	0.439119	0.670378	0.092312
524	C	0.491728	0.747504	0.006772
525	C	0.472324	0.711899	0.007424
526	H	0.483373	0.697756	0.008728
527	H	0.318483	0.788889	0.008582
528	O	0.321919	0.63031	0.007503
529	H	0.639724	0.320708	0.039075
530	H	0.879731	0.192221	0.038087
531	H	0.69549	0.322127	0.039437
532	H	0.824084	0.190905	0.038943
533	H	0.693994	0.376462	0.038045
534	H	0.825392	0.136419	0.039658
535	C	0.661944	0.249955	0.006684
536	N	0.615255	0.248217	0.04304
537	C	0.643745	0.246631	0.046937
538	C	0.656204	0.247474	0.089765
539	O	0.638446	0.241873	0.122883
540	H	0.672958	0.240291	0.092938
541	N	0.767773	0.370294	0.042787
542	C	0.769364	0.400382	0.046557
543	C	0.768274	0.41197	0.089372
544	O	0.775575	0.400641	0.121868
545	H	0.775074	0.435786	0.092383
546	N	0.646244	0.400989	0.04232
547	C	0.61621	0.372462	0.046465
548	C	0.604975	0.359907	0.089453
549	O	0.617416	0.377978	0.122213
550	H	0.580947	0.343497	0.092477
551	N	0.904375	0.264722	0.04223
552	C	0.875932	0.266366	0.046399
553	C	0.863551	0.265292	0.089348
554	O	0.881432	0.27093	0.122337
555	H	0.84667	0.272285	0.092778
556	C	0.753257	0.097838	0.00678
557	N	0.751516	0.142918	0.042918
558	C	0.749936	0.112851	0.046905
559	C	0.750754	0.10129	0.089781
560	O	0.74511	0.113469	0.122836
561	H	0.743607	0.077366	0.093026
562	N	0.873521	0.112168	0.042899
563	C	0.903627	0.140666	0.046596
564	C	0.9153	0.153355	0.089379
565	O	0.904041	0.134725	0.121886
566	H	0.939119	0.170378	0.092312
567	C	0.527809	0.265463	0.006866
568	C	0.5472	0.301068	0.007396
569	H	0.536149	0.315216	0.008358
570	C	0.991728	0.247504	0.006772
571	C	0.972323	0.211899	0.007424
572	H	0.983371	0.197756	0.008728
573	C	0.750779	0.265555	0.006905
574	C	0.715175	0.249329	0.007626
575	C	0.697159	0.266475	0.006725
576	H	0.701049	0.224131	0.008717
577	O	0.698115	0.318612	0.007295
578	C	0.768755	0.247454	0.006853
579	C	0.804359	0.263693	0.007434
580	H	0.818481	0.288889	0.008582
581	C	0.750662	0.488515	0.006791
582	C	0.766862	0.469114	0.007478
583	H	0.792052	0.480159	0.008844
584	C	0.768806	0.024592	0.006908
585	C	0.804872	0.096374	0.006528
586	C	0.769771	0.079149	0.006813
587	C	0.752605	0.043988	0.007658
588	O	0.821919	0.13031	0.007503
589	H	0.727408	0.032934	0.00876
590	H	0.639723	0.820705	0.039075
591	H	0.879731	0.69222	0.038087
592	H	0.69549	0.822127	0.039437
593	H	0.824084	0.690905	0.038943
594	H	0.693994	0.876462	0.038045
595	H	0.825392	0.636419	0.039658
596	C	0.661944	0.749955	0.006684
597	N	0.615255	0.748215	0.04304
598	C	0.643745	0.746632	0.046937
599	C	0.656204	0.747474	0.089765
600	O	0.638447	0.741873	0.122883
601	H	0.672958	0.740292	0.092938
602	N	0.767776	0.870294	0.042787
603	C	0.769364	0.900383	0.046557
604	C	0.768275	0.91197	0.089372
605	O	0.775575	0.900641	0.121868
606	H	0.775076	0.935786	0.092383
607	N	0.646245	0.900989	0.04232
608	C	0.61621	0.872462	0.046465
609	C	0.604974	0.859908	0.089453
610	O	0.617416	0.877976	0.122213
611	H	0.580946	0.843495	0.092477
612	N	0.904375	0.764722	0.04223
613	C	0.875932	0.766366	0.046399
614	C	0.863551	0.765292	0.089348
615	O	0.881433	0.77093	0.122337
616	H	0.846671	0.772282	0.092778
617	C	0.753259	0.597838	0.00678
618	N	0.751515	0.642917	0.042918
619	C	0.749936	0.612851	0.046905
620	C	0.750755	0.601291	0.089781
621	O	0.745109	0.613467	0.122835
622	H	0.743606	0.577365	0.093026
623	N	0.873521	0.612167	0.042899
624	C	0.903627	0.640667	0.046596
625	C	0.915299	0.653353	0.089379
626	O	0.904041	0.634726	0.121886
627	H	0.939119	0.670378	0.092312
628	C	0.527808	0.765463	0.006866
629	C	0.5472	0.801068	0.007396
630	H	0.536149	0.815216	0.008358
631	C	0.991728	0.747504	0.006772
632	C	0.972324	0.711899	0.007424
633	H	0.983372	0.697756	0.008728
634	C	0.750779	0.765555	0.006905
635	C	0.715175	0.749329	0.007627
636	C	0.697159	0.766475	0.006725
637	H	0.701049	0.724131	0.008717
638	O	0.698115	0.818612	0.007295
639	C	0.768755	0.747455	0.006853
640	C	0.804358	0.763691	0.007434
641	H	0.818482	0.788889	0.008582
642	C	0.750661	0.988512	0.006791
643	C	0.766862	0.969114	0.007478
644	H	0.792052	0.980159	0.008844
645	C	0.768807	0.524592	0.006908
646	C	0.804872	0.596374	0.006527
647	C	0.769771	0.579148	0.006813
648	C	0.752604	0.543988	0.007658
649	O	0.82192	0.63031	0.007503
650	H	0.727407	0.532933	0.00876
651	C	0.491728	0.247504	0.340106
652	C	0.472507	0.26389	0.005483
653	C	0.437355	0.246885	0.004554
654	C	0.419949	0.211784	0.338698
655	C	0.437164	0.193901	0.339457
656	C	0.472323	0.211899	0.340757
657	O	0.386004	0.194903	0.339326
658	H	0.483371	0.197756	0.342061
659	H	0.483707	0.289098	0.004439
660	C	0.322386	0.246563	0.3397
661	O	0.321462	0.194445	0.340143
662	H	0.318482	0.288889	0.341916
663	C	0.322574	0.078978	0.005348
664	O	0.321919	0.13031	0.340838
665	H	0.318413	0.032609	0.004335
666	C	0.35759	0.263109	0.006327
667	N	0.370786	0.259283	0.300562
668	C	0.400767	0.261135	0.29674
669	C	0.418926	0.263566	0.002862
670	H	0.406925	0.255114	0.266433
671	C	0.418391	0.158684	0.006141
672	N	0.401285	0.145231	0.300534
673	C	0.37309	0.115254	0.29724
674	C	0.357715	0.097438	0.00371
675	H	0.360876	0.108649	0.266955
676	C	0.491728	0.247504	0.673441
677	C	0.472507	0.26389	0.338816
678	C	0.437355	0.246885	0.337887
679	C	0.419949	0.211784	0.672029
680	C	0.437164	0.193901	0.672789
681	C	0.472323	0.211899	0.674093
682	O	0.386004	0.194903	0.672661
683	H	0.483371	0.197756	0.675396
684	H	0.379731	0.192221	0.371423
685	H	0.483707	0.289098	0.337772
686	C	0.322386	0.246563	0.673036
687	O	0.321462	0.194445	0.673478
688	H	0.318482	0.288889	0.675251
689	H	0.324084	0.190905	0.372277
690	C	0.322574	0.078978	0.338681
691	O	0.321919	0.13031	0.67417
692	H	0.325392	0.136419	0.372993
693	H	0.318413	0.032609	0.337667
694	C	0.35759	0.263109	0.339657
695	N	0.370786	0.259283	0.633895
696	C	0.400767	0.261135	0.630075
697	C	0.418926	0.263566	0.336196
698	N	0.404375	0.264722	0.375563
699	C	0.375932	0.266366	0.379733
700	H	0.406925	0.255114	0.599768
701	C	0.363553	0.265292	0.42268
702	O	0.381432	0.27093	0.455671
703	H	0.346671	0.272285	0.426111
704	C	0.418391	0.158684	0.339474
705	N	0.401285	0.145231	0.633868
706	C	0.37309	0.115254	0.630572
707	C	0.357715	0.097438	0.337041
708	N	0.373521	0.112168	0.376231
709	C	0.403627	0.140666	0.379929
710	H	0.360876	0.108649	0.600288
711	C	0.4153	0.153355	0.422713
712	O	0.404043	0.134725	0.455219
713	H	0.439119	0.170378	0.425645
714	C	0.472507	0.26389	0.672151
715	C	0.437355	0.246885	0.671219
716	C	0.419949	0.211784	0.005364
717	C	0.437164	0.193901	0.006124
718	O	0.386004	0.194903	0.005996
719	H	0.379731	0.192221	0.704754
720	H	0.483707	0.289098	0.671104
721	C	0.322386	0.246563	0.006367
722	O	0.321462	0.194445	0.006809
723	H	0.324084	0.190905	0.705612
724	C	0.322574	0.078978	0.672012
725	H	0.325392	0.136419	0.706325
726	H	0.318413	0.032609	0.670999
727	C	0.35759	0.263109	0.672992
728	N	0.370786	0.259283	0.96723
729	C	0.400767	0.261135	0.963407
730	C	0.418926	0.263566	0.66953
731	N	0.404375	0.264722	0.708898
732	C	0.375932	0.266366	0.713068
733	H	0.406925	0.255114	0.9331
734	C	0.363553	0.265292	0.756015
735	O	0.381432	0.27093	0.789003
736	H	0.346671	0.272285	0.759446
737	C	0.418391	0.158684	0.672806
738	N	0.401285	0.145231	0.967203
739	C	0.37309	0.115254	0.963907
740	C	0.357715	0.097438	0.670375
741	N	0.373521	0.112168	0.709566
742	C	0.403627	0.140666	0.713264
743	H	0.360876	0.108649	0.933623
744	C	0.4153	0.153355	0.756045
745	O	0.404043	0.134725	0.788554
746	H	0.439119	0.170378	0.75898
747	C	0.491728	0.747504	0.340106
748	C	0.472508	0.76389	0.005483
749	C	0.437356	0.746885	0.004554
750	C	0.419948	0.711782	0.338698
751	C	0.437163	0.6939	0.339457
752	C	0.472324	0.711899	0.340757
753	O	0.386005	0.694902	0.339326
754	H	0.483373	0.697756	0.342061
755	H	0.483709	0.789098	0.004439
756	C	0.322386	0.746562	0.3397
757	O	0.321462	0.694445	0.340143
758	H	0.318483	0.788889	0.341916
759	C	0.322575	0.578979	0.005348
760	O	0.321919	0.63031	0.340838
761	H	0.318414	0.532609	0.004335
762	C	0.357589	0.763107	0.006327
763	N	0.370786	0.759283	0.300562
764	C	0.400768	0.761135	0.29674
765	C	0.418927	0.763566	0.002862
766	H	0.406925	0.755114	0.266433
767	C	0.41839	0.658683	0.006141
768	N	0.401286	0.645231	0.300534
769	C	0.37309	0.615255	0.29724
770	C	0.357714	0.597438	0.00371
771	H	0.360878	0.60865	0.266955
772	C	0.491728	0.747504	0.673441
773	C	0.472508	0.76389	0.338816
774	C	0.437356	0.746885	0.337887
775	C	0.419948	0.711782	0.672029
776	C	0.437163	0.6939	0.672789
777	C	0.472324	0.711899	0.674093
778	O	0.386005	0.694902	0.672661
779	H	0.483373	0.697756	0.675396
780	H	0.37973	0.69222	0.371423
781	H	0.483709	0.789098	0.337772
782	C	0.322386	0.746562	0.673036
783	O	0.321462	0.694445	0.673478
784	H	0.318483	0.788889	0.675251
785	H	0.324085	0.690905	0.372277
786	C	0.322575	0.578979	0.338681
787	O	0.321919	0.63031	0.67417
788	H	0.325392	0.636419	0.372993
789	H	0.318414	0.532609	0.337667
790	C	0.357589	0.763107	0.339657
791	N	0.370786	0.759283	0.633895
792	C	0.400768	0.761135	0.630075
793	C	0.418927	0.763566	0.336196
794	N	0.404375	0.764722	0.375563
795	C	0.375933	0.766366	0.379733
796	H	0.406925	0.755114	0.599768
797	C	0.363553	0.765292	0.42268
798	O	0.381433	0.77093	0.455671
799	H	0.346671	0.772282	0.426111
800	C	0.41839	0.658683	0.339474
801	N	0.401286	0.645231	0.633868
802	C	0.37309	0.615255	0.630572
803	C	0.357714	0.597438	0.337041
804	N	0.373521	0.612167	0.376231
805	C	0.403628	0.640667	0.379929
806	H	0.360878	0.60865	0.600288
807	C	0.415299	0.653353	0.422713
808	O	0.404043	0.634726	0.455219
809	H	0.439119	0.670378	0.425645
810	C	0.472508	0.76389	0.672151
811	C	0.437356	0.746885	0.671219
812	C	0.419948	0.711782	0.005364
813	C	0.437163	0.6939	0.006124
814	O	0.386005	0.694902	0.005996
815	H	0.37973	0.69222	0.704754
816	H	0.483709	0.789098	0.671104
817	C	0.322386	0.746562	0.006367
818	O	0.321462	0.694445	0.006809
819	H	0.324085	0.690905	0.705612
820	C	0.322575	0.578979	0.672012
821	H	0.325392	0.636419	0.706325
822	H	0.318414	0.532609	0.670999
823	C	0.357589	0.763107	0.672992
824	N	0.370786	0.759283	0.96723
825	C	0.400768	0.761135	0.963407
826	C	0.418927	0.763566	0.66953
827	N	0.404375	0.764722	0.708898
828	C	0.375933	0.766366	0.713068
829	H	0.406925	0.755114	0.9331
830	C	0.363553	0.765292	0.756015
831	O	0.381433	0.77093	0.789003
832	H	0.346671	0.772282	0.759446
833	C	0.41839	0.658683	0.672806
834	N	0.401286	0.645231	0.967203
835	C	0.37309	0.615255	0.963907
836	C	0.357714	0.597438	0.670375
837	N	0.373521	0.612167	0.709566
838	C	0.403628	0.640667	0.713264
839	H	0.360878	0.60865	0.933623
840	C	0.415299	0.653353	0.756045
841	O	0.404043	0.634726	0.788554
842	H	0.439119	0.670378	0.75898
843	C	0.527809	0.265463	0.3402
844	C	0.5472	0.301068	0.34073
845	C	0.58236	0.319067	0.339873
846	C	0.599593	0.301202	0.339481
847	C	0.582202	0.266102	0.005172
848	C	0.54704	0.249085	0.005834
849	H	0.536149	0.315216	0.341693
850	O	0.633532	0.31811	0.340285
851	C	0.991728	0.247504	0.340106
852	C	0.972507	0.26389	0.005483
853	C	0.937355	0.246885	0.004554
854	C	0.919949	0.211784	0.338698
855	C	0.937162	0.193901	0.339457
856	C	0.972323	0.211899	0.340757
857	O	0.886004	0.194903	0.339326
858	H	0.983371	0.197756	0.342061
859	H	0.535843	0.223875	0.00475
860	H	0.983707	0.289098	0.004439
861	C	0.750779	0.265555	0.340237
862	C	0.715175	0.249329	0.34096
863	C	0.697159	0.266475	0.340058
864	C	0.715018	0.301578	0.339714
865	C	0.750115	0.319291	0.005273
866	C	0.767141	0.30116	0.005699
867	H	0.701049	0.224131	0.342051
868	O	0.698115	0.318612	0.340629
869	C	0.768755	0.247454	0.340187
870	C	0.752399	0.211848	0.005733
871	C	0.769441	0.193732	0.004996
872	C	0.80454	0.211463	0.339282
873	C	0.822385	0.246563	0.3397
874	C	0.804359	0.263693	0.340768
875	O	0.821462	0.194445	0.340143
876	H	0.818481	0.288889	0.341916
877	H	0.792345	0.315181	0.004446
878	H	0.727192	0.197821	0.004645
879	C	0.750662	0.488515	0.340126
880	C	0.766862	0.469114	0.340811
881	C	0.749694	0.433959	0.339528
882	C	0.714596	0.416736	0.338768
883	C	0.696897	0.43414	0.004652
884	C	0.715055	0.469298	0.005489
885	H	0.792052	0.480159	0.342176
886	O	0.697539	0.382789	0.339302
887	C	0.768806	0.024592	0.340241
888	C	0.804415	0.043815	0.005699
889	C	0.822574	0.078978	0.005348
890	C	0.804872	0.096374	0.339863
891	C	0.769771	0.079149	0.340146
892	C	0.752605	0.043988	0.34099
893	O	0.821919	0.13031	0.340838
894	H	0.727408	0.032934	0.342095
895	H	0.701053	0.480505	0.004348
896	H	0.818413	0.032609	0.004335
897	N	0.648693	0.253796	0.301002
898	C	0.618706	0.251979	0.297461
899	C	0.600672	0.249441	0.003781
900	H	0.612426	0.257878	0.267147
901	C	0.766134	0.415199	0.006134
902	N	0.762587	0.398093	0.300572
903	C	0.764403	0.369921	0.297293
904	C	0.766776	0.354403	0.003686
905	H	0.758863	0.357769	0.266966
906	C	0.601105	0.354269	0.006232
907	N	0.61792	0.367684	0.300434
908	C	0.646045	0.39768	0.296764
909	C	0.661773	0.415701	0.002933
910	H	0.658037	0.404181	0.266322
911	C	0.85759	0.263109	0.006327
912	N	0.870784	0.259283	0.300562
913	C	0.900767	0.261135	0.29674
914	C	0.918926	0.263566	0.002862
915	H	0.906923	0.255114	0.266433
916	N	0.757165	0.11493	0.301044
917	C	0.75536	0.143093	0.297287
918	C	0.752778	0.158593	0.003531
919	H	0.761335	0.15525	0.266956
920	C	0.918389	0.158684	0.006141
921	N	0.901285	0.145231	0.300534
922	C	0.87309	0.115254	0.29724
923	C	0.857713	0.097438	0.00371
924	H	0.860876	0.108649	0.266955
925	C	0.527809	0.265463	0.673532
926	C	0.5472	0.301068	0.674062
927	C	0.58236	0.319067	0.673208
928	C	0.599593	0.301202	0.672816
929	C	0.582202	0.266102	0.338505
930	C	0.54704	0.249085	0.339164
931	H	0.536149	0.315216	0.675025
932	O	0.633532	0.31811	0.67362
933	C	0.991728	0.247504	0.673441
934	C	0.972507	0.26389	0.338816
935	C	0.937355	0.246885	0.337887
936	C	0.919949	0.211784	0.672029
937	C	0.937162	0.193901	0.672789
938	C	0.972323	0.211899	0.674093
939	O	0.886004	0.194903	0.672661
940	H	0.983371	0.197756	0.675396
941	H	0.639724	0.320708	0.372409
942	H	0.879731	0.192221	0.371423
943	H	0.535843	0.223875	0.33808
944	H	0.983707	0.289098	0.337772
945	C	0.750779	0.265555	0.673573
946	C	0.715175	0.249329	0.674295
947	C	0.697159	0.266475	0.673394
948	C	0.715018	0.301578	0.673049
949	C	0.750115	0.319291	0.338603
950	C	0.767141	0.30116	0.339032
951	H	0.701049	0.224131	0.675386
952	O	0.698115	0.318612	0.673961
953	C	0.768755	0.247454	0.673522
954	C	0.752399	0.211848	0.339066
955	C	0.769441	0.193732	0.338326
956	C	0.80454	0.211463	0.672614
957	C	0.822385	0.246563	0.673036
958	C	0.804359	0.263693	0.674103
959	O	0.821462	0.194445	0.673478
960	H	0.818481	0.288889	0.675251
961	H	0.69549	0.322127	0.37277
962	H	0.824084	0.190905	0.372277
963	H	0.792345	0.315181	0.337779
964	H	0.727192	0.197821	0.337975
965	C	0.750662	0.488515	0.673458
966	C	0.766862	0.469114	0.674147
967	C	0.749694	0.433959	0.67286
968	C	0.714596	0.416736	0.6721
969	C	0.696897	0.43414	0.337985
970	C	0.715055	0.469298	0.338823
971	H	0.792052	0.480159	0.675511
972	O	0.697539	0.382789	0.672634
973	C	0.768806	0.024592	0.673576
974	C	0.804415	0.043815	0.339032
975	C	0.822574	0.078978	0.338681
976	C	0.804872	0.096374	0.673194
977	C	0.769771	0.079149	0.673481
978	C	0.752605	0.043988	0.674326
979	O	0.821919	0.13031	0.67417
980	H	0.727408	0.032934	0.675426
981	H	0.693994	0.376462	0.371379
982	H	0.825392	0.136419	0.372993
983	H	0.701053	0.480505	0.33768
984	H	0.818413	0.032609	0.337667
985	C	0.661944	0.249955	0.340018
986	N	0.648693	0.253796	0.634334
987	C	0.618706	0.251979	0.630795
988	C	0.600672	0.249441	0.337114
989	N	0.615255	0.248217	0.376373
990	C	0.643745	0.246631	0.38027
991	H	0.612426	0.257878	0.600481
992	C	0.656204	0.247474	0.423098
993	O	0.638446	0.241873	0.456215
994	H	0.672958	0.240291	0.426273
995	C	0.766134	0.415199	0.339467
996	N	0.762587	0.398093	0.633905
997	C	0.764403	0.369921	0.630626
998	C	0.766776	0.354403	0.337017
999	N	0.767773	0.370294	0.37612
1000	C	0.769364	0.400382	0.379892
1001	H	0.758863	0.357769	0.600298
1002	C	0.768274	0.41197	0.422707
1003	O	0.775575	0.400641	0.455202
1004	H	0.775074	0.435786	0.425715
1005	C	0.601105	0.354269	0.339565
1006	N	0.61792	0.367684	0.633766
1007	C	0.646045	0.39768	0.630096
1008	C	0.661773	0.415701	0.336266
1009	N	0.646244	0.400989	0.375654
1010	C	0.61621	0.372462	0.379801
1011	H	0.658037	0.404181	0.599657
1012	C	0.604975	0.359907	0.422788
1013	O	0.617416	0.377978	0.455547
1014	H	0.580947	0.343497	0.42581
1015	C	0.85759	0.263109	0.339657
1016	N	0.870784	0.259283	0.633895
1017	C	0.900767	0.261135	0.630075
1018	C	0.918926	0.263566	0.336196
1019	N	0.904375	0.264722	0.375563
1020	C	0.875932	0.266366	0.379733
1021	H	0.906923	0.255114	0.599768
1022	C	0.863551	0.265292	0.42268
1023	O	0.881432	0.27093	0.455671
1024	H	0.84667	0.272285	0.426111
1025	C	0.753257	0.097838	0.340112
1026	N	0.757165	0.11493	0.634377
1027	C	0.75536	0.143093	0.630619
1028	C	0.752778	0.158593	0.336865
1029	N	0.751516	0.142918	0.376251
1030	C	0.749936	0.112851	0.38024
1031	H	0.761335	0.15525	0.600292
1032	C	0.750754	0.10129	0.423115
1033	O	0.74511	0.113469	0.456168
1034	H	0.743607	0.077366	0.42636
1035	C	0.918389	0.158684	0.339474
1036	N	0.901285	0.145231	0.633868
1037	C	0.87309	0.115254	0.630572
1038	C	0.857713	0.097438	0.337041
1039	N	0.873521	0.112168	0.376231
1040	C	0.903627	0.140666	0.379929
1041	H	0.860876	0.108649	0.600288
1042	C	0.9153	0.153355	0.422713
1043	O	0.904041	0.134725	0.455219
1044	H	0.939119	0.170378	0.425645
1045	C	0.58236	0.319067	0.00654
1046	C	0.599593	0.301202	0.006148
1047	C	0.582202	0.266102	0.671837
1048	C	0.54704	0.249085	0.672499
1049	O	0.633532	0.31811	0.006953
1050	C	0.972507	0.26389	0.672151
1051	C	0.937355	0.246885	0.671219
1052	C	0.919949	0.211784	0.005364
1053	C	0.937162	0.193901	0.006124
1054	O	0.886004	0.194903	0.005996
1055	H	0.639724	0.320708	0.705744
1056	H	0.879731	0.192221	0.704754
1057	H	0.535843	0.223875	0.671415
1058	H	0.983707	0.289098	0.671104
1059	C	0.715018	0.301578	0.006384
1060	C	0.750115	0.319291	0.671938
1061	C	0.767141	0.30116	0.672364
1062	C	0.752399	0.211848	0.672397
1063	C	0.769441	0.193732	0.671661
1064	C	0.80454	0.211463	0.005949
1065	C	0.822385	0.246563	0.006367
1066	O	0.821462	0.194445	0.006809
1067	H	0.69549	0.322127	0.706105
1068	H	0.824084	0.190905	0.705612
1069	H	0.792345	0.315181	0.671114
1070	H	0.727192	0.197821	0.67131
1071	C	0.749694	0.433959	0.006195
1072	C	0.714596	0.416736	0.005435
1073	C	0.696897	0.43414	0.67132
1074	C	0.715055	0.469298	0.672158
1075	O	0.697539	0.382789	0.005969
1076	C	0.804415	0.043815	0.672367
1077	C	0.822574	0.078978	0.672012
1078	H	0.693994	0.376462	0.704714
1079	H	0.825392	0.136419	0.706325
1080	H	0.701053	0.480505	0.671013
1081	H	0.818413	0.032609	0.670999
1082	C	0.661944	0.249955	0.673353
1083	N	0.648693	0.253796	0.967669
1084	C	0.618706	0.251979	0.96413
1085	C	0.600672	0.249441	0.670449
1086	N	0.615255	0.248217	0.709708
1087	C	0.643745	0.246631	0.713605
1088	H	0.612426	0.257878	0.933816
1089	C	0.656204	0.247474	0.756434
1090	O	0.638446	0.241873	0.78955
1091	H	0.672958	0.240291	0.759604
1092	C	0.766134	0.415199	0.672799
1093	N	0.762587	0.398093	0.96724
1094	C	0.764403	0.369921	0.963961
1095	C	0.766776	0.354403	0.670351
1096	N	0.767773	0.370294	0.709455
1097	C	0.769364	0.400382	0.713223
1098	H	0.758863	0.357769	0.933634
1099	C	0.768274	0.41197	0.756038
1100	O	0.775575	0.400641	0.788534
1101	H	0.775074	0.435786	0.759051
1102	C	0.601105	0.354269	0.672897
1103	N	0.61792	0.367684	0.967101
1104	C	0.646045	0.39768	0.963431
1105	C	0.661773	0.415701	0.669601
1106	N	0.646244	0.400989	0.708989
1107	C	0.61621	0.372462	0.713132
1108	H	0.658037	0.404181	0.932989
1109	C	0.604975	0.359907	0.75612
1110	O	0.617416	0.377978	0.788882
1111	H	0.580947	0.343497	0.759145
1112	C	0.85759	0.263109	0.672992
1113	N	0.870784	0.259283	0.96723
1114	C	0.900767	0.261135	0.963407
1115	C	0.918926	0.263566	0.66953
1116	N	0.904375	0.264722	0.708898
1117	C	0.875932	0.266366	0.713068
1118	H	0.906923	0.255114	0.9331
1119	C	0.863551	0.265292	0.756015
1120	O	0.881432	0.27093	0.789003
1121	H	0.84667	0.272285	0.759446
1122	C	0.753257	0.097838	0.673448
1123	N	0.757165	0.11493	0.967713
1124	C	0.75536	0.143093	0.963954
1125	C	0.752778	0.158593	0.670199
1126	N	0.751516	0.142918	0.709587
1127	C	0.749936	0.112851	0.713571
1128	H	0.761335	0.15525	0.933623
1129	C	0.750754	0.10129	0.756447
1130	O	0.74511	0.113469	0.789503
1131	H	0.743607	0.077366	0.759692
1132	C	0.918389	0.158684	0.672806
1133	N	0.901285	0.145231	0.967203
1134	C	0.87309	0.115254	0.963907
1135	C	0.857713	0.097438	0.670375
1136	N	0.873521	0.112168	0.709566
1137	C	0.903627	0.140666	0.713264
1138	H	0.860876	0.108649	0.933623
1139	C	0.9153	0.153355	0.756045
1140	O	0.904041	0.134725	0.788554
1141	H	0.939119	0.170378	0.75898
1142	C	0.527808	0.765463	0.3402
1143	C	0.5472	0.801068	0.34073
1144	C	0.582361	0.819067	0.339873
1145	C	0.599593	0.801202	0.339481
1146	C	0.582202	0.766102	0.005172
1147	C	0.547041	0.749085	0.005834
1148	H	0.536149	0.815216	0.341693
1149	O	0.633534	0.81811	0.340285
1150	C	0.991728	0.747504	0.340106
1151	C	0.972507	0.76389	0.005483
1152	C	0.937355	0.746885	0.004554
1153	C	0.919948	0.711782	0.338698
1154	C	0.937162	0.6939	0.339457
1155	C	0.972324	0.711899	0.340757
1156	O	0.886004	0.694902	0.339326
1157	H	0.983372	0.697756	0.342061
1158	H	0.535843	0.723875	0.00475
1159	H	0.983708	0.789098	0.004439
1160	C	0.750779	0.765555	0.340237
1161	C	0.715175	0.749329	0.34096
1162	C	0.697159	0.766475	0.340058
1163	C	0.715017	0.801575	0.339714
1164	C	0.750115	0.819291	0.005273
1165	C	0.767142	0.80116	0.005699
1166	H	0.701049	0.724131	0.342051
1167	O	0.698115	0.818612	0.340629
1168	C	0.768755	0.747455	0.340187
1169	C	0.752398	0.711847	0.005733
1170	C	0.769441	0.693731	0.004996
1171	C	0.80454	0.711462	0.339282
1172	C	0.822385	0.746562	0.3397
1173	C	0.804358	0.763691	0.340768
1174	O	0.821462	0.694445	0.340143
1175	H	0.818482	0.788889	0.341916
1176	H	0.792345	0.815181	0.004446
1177	H	0.727193	0.697821	0.004645
1178	C	0.750661	0.988512	0.340126
1179	C	0.766862	0.969114	0.340811
1180	C	0.749694	0.933959	0.339525
1181	C	0.714596	0.916736	0.338768
1182	C	0.696897	0.93414	0.004652
1183	C	0.715055	0.969298	0.005489
1184	H	0.792052	0.980159	0.342176
1185	O	0.697539	0.882789	0.339302
1186	C	0.768807	0.524592	0.340241
1187	C	0.804415	0.543814	0.005699
1188	C	0.822574	0.578979	0.005348
1189	C	0.804872	0.596374	0.339863
1190	C	0.769771	0.579148	0.340146
1191	C	0.752604	0.543988	0.34099
1192	O	0.82192	0.63031	0.340838
1193	H	0.727407	0.532933	0.342095
1194	H	0.701054	0.980505	0.004348
1195	H	0.818413	0.532609	0.004335
1196	N	0.648693	0.753796	0.301002
1197	C	0.618706	0.751979	0.297461
1198	C	0.600672	0.749441	0.003781
1199	H	0.612425	0.757876	0.267147
1200	C	0.766133	0.915197	0.006134
1201	N	0.762587	0.898093	0.300572
1202	C	0.764405	0.869921	0.297293
1203	C	0.766775	0.854401	0.003686
1204	H	0.758863	0.85777	0.266966
1205	C	0.601104	0.854269	0.006232
1206	N	0.61792	0.867684	0.300434
1207	C	0.646045	0.89768	0.296764
1208	C	0.661774	0.915702	0.002933
1209	H	0.658036	0.904181	0.266322
1210	C	0.857589	0.763107	0.006327
1211	N	0.870784	0.759283	0.300562
1212	C	0.900767	0.761135	0.29674
1213	C	0.918926	0.763566	0.002862
1214	H	0.906926	0.755114	0.266433
1215	N	0.757165	0.614929	0.301044
1216	C	0.755362	0.643093	0.297287
1217	C	0.752777	0.658591	0.003531
1218	H	0.761335	0.65525	0.266956
1219	C	0.918388	0.658683	0.006141
1220	N	0.901285	0.645231	0.300534
1221	C	0.87309	0.615255	0.29724
1222	C	0.857712	0.597438	0.00371
1223	H	0.860877	0.60865	0.266955
1224	C	0.527808	0.765463	0.673532
1225	C	0.5472	0.801068	0.674062
1226	C	0.582361	0.819067	0.673208
1227	C	0.599593	0.801202	0.672816
1228	C	0.582202	0.766102	0.338505
1229	C	0.547041	0.749085	0.339164
1230	H	0.536149	0.815216	0.675025
1231	O	0.633534	0.81811	0.67362
1232	C	0.991728	0.747504	0.673441
1233	C	0.972507	0.76389	0.338816
1234	C	0.937355	0.746885	0.337887
1235	C	0.919948	0.711782	0.672029
1236	C	0.937162	0.6939	0.672789
1237	C	0.972324	0.711899	0.674093
1238	O	0.886004	0.694902	0.672661
1239	H	0.983372	0.697756	0.675396
1240	H	0.639723	0.820705	0.372409
1241	H	0.879731	0.69222	0.371423
1242	H	0.535843	0.723875	0.33808
1243	H	0.983708	0.789098	0.337772
1244	C	0.750779	0.765555	0.673573
1245	C	0.715175	0.749329	0.674295
1246	C	0.697159	0.766475	0.673394
1247	C	0.715017	0.801575	0.673049
1248	C	0.750115	0.819291	0.338603
1249	C	0.767142	0.80116	0.339032
1250	H	0.701049	0.724131	0.675386
1251	O	0.698115	0.818612	0.673961
1252	C	0.768755	0.747455	0.673522
1253	C	0.752398	0.711847	0.339066
1254	C	0.769441	0.693731	0.338326
1255	C	0.80454	0.711462	0.672614
1256	C	0.822385	0.746562	0.673036
1257	C	0.804358	0.763691	0.674103
1258	O	0.821462	0.694445	0.673478
1259	H	0.818482	0.788889	0.675251
1260	H	0.69549	0.822127	0.37277
1261	H	0.824084	0.690905	0.372277
1262	H	0.792345	0.815181	0.337779
1263	H	0.727193	0.697821	0.337975
1264	C	0.750661	0.988512	0.673458
1265	C	0.766862	0.969114	0.674147
1266	C	0.749694	0.933959	0.67286
1267	C	0.714596	0.916736	0.6721
1268	C	0.696897	0.93414	0.337985
1269	C	0.715055	0.969298	0.338823
1270	H	0.792052	0.980159	0.675511
1271	O	0.697539	0.882789	0.672634
1272	C	0.768807	0.524592	0.673576
1273	C	0.804415	0.543814	0.339032
1274	C	0.822574	0.578979	0.338681
1275	C	0.804872	0.596374	0.673194
1276	C	0.769771	0.579148	0.673481
1277	C	0.752604	0.543988	0.674326
1278	O	0.82192	0.63031	0.67417
1279	H	0.727407	0.532933	0.675426
1280	H	0.693994	0.876462	0.371379
1281	H	0.825392	0.636419	0.372993
1282	H	0.701054	0.980505	0.33768
1283	H	0.818413	0.532609	0.337667
1284	C	0.661944	0.749955	0.340018
1285	N	0.648693	0.753796	0.634334
1286	C	0.618706	0.751979	0.630795
1287	C	0.600672	0.749441	0.337114
1288	N	0.615255	0.748215	0.376373
1289	C	0.643745	0.746632	0.38027
1290	H	0.612425	0.757876	0.600481
1291	C	0.656204	0.747474	0.423098
1292	O	0.638447	0.741873	0.456215
1293	H	0.672958	0.740292	0.426273
1294	C	0.766133	0.915197	0.339467
1295	N	0.762587	0.898093	0.633905
1296	C	0.764405	0.869921	0.630626
1297	C	0.766775	0.854401	0.337017
1298	N	0.767776	0.870294	0.37612
1299	C	0.769364	0.900383	0.379892
1300	H	0.758863	0.85777	0.600298
1301	C	0.768275	0.91197	0.422707
1302	O	0.775575	0.900641	0.455202
1303	H	0.775076	0.935786	0.425715
1304	C	0.601104	0.854269	0.339565
1305	N	0.61792	0.867684	0.633766
1306	C	0.646045	0.89768	0.630096
1307	C	0.661774	0.915702	0.336266
1308	N	0.646245	0.900989	0.375654
1309	C	0.61621	0.872462	0.379801
1310	H	0.658036	0.904181	0.599657
1311	C	0.604974	0.859908	0.422788
1312	O	0.617416	0.877976	0.455547
1313	H	0.580946	0.843495	0.42581
1314	C	0.857589	0.763107	0.339657
1315	N	0.870784	0.759283	0.633895
1316	C	0.900767	0.761135	0.630075
1317	C	0.918926	0.763566	0.336196
1318	N	0.904375	0.764722	0.375563
1319	C	0.875932	0.766366	0.379733
1320	H	0.906926	0.755114	0.599768
1321	C	0.863551	0.765292	0.42268
1322	O	0.881433	0.77093	0.455671
1323	H	0.846671	0.772282	0.426111
1324	C	0.753259	0.597838	0.340112
1325	N	0.757165	0.614929	0.634377
1326	C	0.755362	0.643093	0.630619
1327	C	0.752777	0.658591	0.336865
1328	N	0.751515	0.642917	0.376251
1329	C	0.749936	0.612851	0.38024
1330	H	0.761335	0.65525	0.600292
1331	C	0.750755	0.601291	0.423115
1332	O	0.745109	0.613467	0.456168
1333	H	0.743606	0.577365	0.42636
1334	C	0.918388	0.658683	0.339474
1335	N	0.901285	0.645231	0.633868
1336	C	0.87309	0.615255	0.630572
1337	C	0.857712	0.597438	0.337041
1338	N	0.873521	0.612167	0.376231
1339	C	0.903627	0.640667	0.379929
1340	H	0.860877	0.60865	0.600288
1341	C	0.915299	0.653353	0.422713
1342	O	0.904041	0.634726	0.455219
1343	H	0.939119	0.670378	0.425645
1344	C	0.582361	0.819067	0.00654
1345	C	0.599593	0.801202	0.006148
1346	C	0.582202	0.766102	0.671837
1347	C	0.547041	0.749085	0.672499
1348	O	0.633534	0.81811	0.006953
1349	C	0.972507	0.76389	0.672151
1350	C	0.937355	0.746885	0.671219
1351	C	0.919948	0.711782	0.005364
1352	C	0.937162	0.6939	0.006124
1353	O	0.886004	0.694902	0.005996
1354	H	0.639723	0.820705	0.705744
1355	H	0.879731	0.69222	0.704754
1356	H	0.535843	0.723875	0.671415
1357	H	0.983708	0.789098	0.671104
1358	C	0.715017	0.801575	0.006384
1359	C	0.750115	0.819291	0.671938
1360	C	0.767142	0.80116	0.672364
1361	C	0.752398	0.711847	0.672397
1362	C	0.769441	0.693731	0.671661
1363	C	0.80454	0.711462	0.005949
1364	C	0.822385	0.746562	0.006367
1365	O	0.821462	0.694445	0.006809
1366	H	0.69549	0.822127	0.706105
1367	H	0.824084	0.690905	0.705612
1368	H	0.792345	0.815181	0.671114
1369	H	0.727193	0.697821	0.67131
1370	C	0.749694	0.933959	0.006195
1371	C	0.714596	0.916736	0.005435
1372	C	0.696897	0.93414	0.67132
1373	C	0.715055	0.969298	0.672158
1374	O	0.697539	0.882789	0.005969
1375	C	0.804415	0.543814	0.672367
1376	C	0.822574	0.578979	0.672012
1377	H	0.693994	0.876462	0.704714
1378	H	0.825392	0.636419	0.706325
1379	H	0.701054	0.980505	0.671013
1380	H	0.818413	0.532609	0.670999
1381	C	0.661944	0.749955	0.673353
1382	N	0.648693	0.753796	0.967669
1383	C	0.618706	0.751979	0.96413
1384	C	0.600672	0.749441	0.670449
1385	N	0.615255	0.748215	0.709708
1386	C	0.643745	0.746632	0.713605
1387	H	0.612425	0.757876	0.933816
1388	C	0.656204	0.747474	0.756434
1389	O	0.638447	0.741873	0.78955
1390	H	0.672958	0.740292	0.759604
1391	C	0.766133	0.915197	0.672799
1392	N	0.762587	0.898093	0.96724
1393	C	0.764405	0.869921	0.963961
1394	C	0.766775	0.854401	0.670351
1395	N	0.767776	0.870294	0.709455
1396	C	0.769364	0.900383	0.713223
1397	H	0.758863	0.85777	0.933634
1398	C	0.768275	0.91197	0.756038
1399	O	0.775575	0.900641	0.788534
1400	H	0.775076	0.935786	0.759051
1401	C	0.601104	0.854269	0.672897
1402	N	0.61792	0.867684	0.967101
1403	C	0.646045	0.89768	0.963431
1404	C	0.661774	0.915702	0.669601
1405	N	0.646245	0.900989	0.708989
1406	C	0.61621	0.872462	0.713132
1407	H	0.658036	0.904181	0.932989
1408	C	0.604974	0.859908	0.75612
1409	O	0.617416	0.877976	0.788882
1410	H	0.580946	0.843495	0.759145
1411	C	0.857589	0.763107	0.672992
1412	N	0.870784	0.759283	0.96723
1413	C	0.900767	0.761135	0.963407
1414	C	0.918926	0.763566	0.66953
1415	N	0.904375	0.764722	0.708898
1416	C	0.875932	0.766366	0.713068
1417	H	0.906926	0.755114	0.9331
1418	C	0.863551	0.765292	0.756015
1419	O	0.881433	0.77093	0.789003
1420	H	0.846671	0.772282	0.759446
1421	C	0.753259	0.597838	0.673448
1422	N	0.757165	0.614929	0.967713
1423	C	0.755362	0.643093	0.963954
1424	C	0.752777	0.658591	0.670199
1425	N	0.751515	0.642917	0.709587
1426	C	0.749936	0.612851	0.713571
1427	H	0.761335	0.65525	0.933623
1428	C	0.750755	0.601291	0.756447
1429	O	0.745109	0.613467	0.789503
1430	H	0.743606	0.577365	0.759692
1431	C	0.918388	0.658683	0.672806
1432	N	0.901285	0.645231	0.967203
1433	C	0.87309	0.615255	0.963907
1434	C	0.857712	0.597438	0.670375
1435	N	0.873521	0.612167	0.709566
1436	C	0.903627	0.640667	0.713264
1437	H	0.860877	0.60865	0.933623
1438	C	0.915299	0.653353	0.756045
1439	O	0.904041	0.634726	0.788554
1440	H	0.939119	0.670378	0.75898
