data_C792H504N144O72_2018-02-15_10:35:36
#******************************************
#
# CIF file created by Zeo++
# Zeo++ is an open source package to
# analyze microporous materials
#
#*******************************************

_cell_length_a		46.4792   
_cell_length_b		46.4792   
_cell_length_c		29.6386   
_cell_angle_alpha		90   
_cell_angle_beta		90   
_cell_angle_gamma		120   

_symmetry_space_group_name_H-M		'P1'
_symmetry_Int_Tables_number		1
_symmetry_cell_setting		Monoclinic

loop_
_symmetry_equiv_pos_as_xyz
'+x,+y,+z'

loop_
_atom_site_label
_atom_site_type_symbol
_atom_site_fract_x
_atom_site_fract_y
_atom_site_fract_z
1	C	0.027212	0.265146	0.339506
2	C	0.04644	0.300747	0.339226
3	C	0.081565	0.318875	0.337873
4	C	0.098946	0.301179	0.338136
5	C	0.081764	0.26609	0.00481
6	C	0.046606	0.248948	0.005667
7	H	0.035273	0.314776	0.339196
8	O	0.132868	0.318219	0.339081
9	H	0.035557	0.223763	0.005505
10	C	0.115053	0.245633	0.043449
11	C	0.100495	0.249579	0.003285
12	C	0.118255	0.252829	0.296321
13	H	0.111511	0.259241	0.266783
14	C	0.10226	0.244628	0.089508
15	H	0.078094	0.243141	0.089437
16	H	0.119768	0.26689	0.108002
17	H	0.099571	0.222846	0.107265
18	N	0.118397	0.367138	0.297887
19	C	0.10006	0.353904	0.002539
20	N	0.113885	0.370554	0.041492
21	H	0.135296	0.416122	0.107389
22	C	0.027212	0.265146	0.672838
23	C	0.04644	0.300747	0.672561
24	C	0.081565	0.318875	0.671208
25	C	0.098946	0.301179	0.671471
26	C	0.081764	0.26609	0.338143
27	C	0.046606	0.248948	0.339
28	H	0.035273	0.314776	0.672531
29	O	0.132868	0.318219	0.672416
30	H	0.035557	0.223763	0.338838
31	C	0.115053	0.245633	0.376782
32	C	0.100495	0.249579	0.336616
33	C	0.118255	0.252829	0.629654
34	H	0.111511	0.259241	0.600118
35	C	0.10226	0.244628	0.422843
36	H	0.078094	0.243141	0.422769
37	H	0.119768	0.26689	0.441336
38	H	0.099571	0.222846	0.4406
39	N	0.118397	0.367138	0.63122
40	C	0.10006	0.353904	0.335871
41	N	0.113885	0.370554	0.374825
42	H	0.135296	0.416122	0.440722
43	C	0.027212	0.265146	0.006171
44	C	0.04644	0.300747	0.005896
45	C	0.081565	0.318875	0.00454
46	C	0.098946	0.301179	0.004806
47	C	0.081764	0.26609	0.671478
48	C	0.046606	0.248948	0.672335
49	H	0.035273	0.314776	0.005866
50	O	0.132868	0.318219	0.005748
51	H	0.035557	0.223763	0.672173
52	C	0.115053	0.245633	0.710117
53	C	0.100495	0.249579	0.66995
54	C	0.118255	0.252829	0.962989
55	H	0.111511	0.259241	0.93345
56	C	0.10226	0.244628	0.756175
57	H	0.078094	0.243141	0.756104
58	H	0.119768	0.26689	0.774671
59	H	0.099571	0.222846	0.773932
60	N	0.118397	0.367138	0.964555
61	C	0.10006	0.353904	0.669204
62	N	0.113885	0.370554	0.70816
63	H	0.135296	0.416122	0.774057
64	C	0.027211	0.765144	0.339506
65	C	0.046441	0.800747	0.339226
66	C	0.081564	0.818875	0.337873
67	C	0.098945	0.801179	0.338136
68	C	0.081763	0.766088	0.00481
69	C	0.046607	0.748949	0.005667
70	H	0.035272	0.814774	0.339196
71	O	0.132868	0.81822	0.339081
72	H	0.035557	0.723762	0.005508
73	C	0.115053	0.745632	0.043449
74	C	0.100495	0.74958	0.003285
75	C	0.118255	0.752827	0.296321
76	H	0.111511	0.759241	0.266783
77	C	0.10226	0.744628	0.089508
78	H	0.078093	0.74314	0.089437
79	H	0.119768	0.766891	0.108002
80	H	0.09957	0.722846	0.107265
81	N	0.118397	0.867136	0.297887
82	C	0.10006	0.853905	0.002539
83	N	0.113884	0.870555	0.041492
84	H	0.135295	0.916122	0.107389
85	C	0.027211	0.765144	0.672838
86	C	0.046441	0.800747	0.672561
87	C	0.081564	0.818875	0.671208
88	C	0.098945	0.801179	0.671471
89	C	0.081763	0.766088	0.338143
90	C	0.046607	0.748949	0.339
91	H	0.035272	0.814774	0.672531
92	O	0.132868	0.81822	0.672416
93	H	0.035557	0.723762	0.338838
94	C	0.115053	0.745632	0.376782
95	C	0.100495	0.74958	0.336616
96	C	0.118255	0.752827	0.629654
97	H	0.111511	0.759241	0.600118
98	C	0.10226	0.744628	0.422843
99	H	0.078093	0.74314	0.422769
100	H	0.119768	0.766891	0.441336
101	H	0.09957	0.722846	0.4406
102	N	0.118397	0.867136	0.63122
103	C	0.10006	0.853905	0.335871
104	N	0.113884	0.870555	0.374825
105	H	0.135295	0.916122	0.440722
106	C	0.027211	0.765144	0.006171
107	C	0.046441	0.800747	0.005896
108	C	0.081564	0.818875	0.00454
109	C	0.098945	0.801179	0.004806
110	C	0.081763	0.766088	0.671478
111	C	0.046607	0.748949	0.672335
112	H	0.035272	0.814774	0.005866
113	O	0.132868	0.81822	0.005748
114	H	0.035557	0.723762	0.672173
115	C	0.115053	0.745632	0.710117
116	C	0.100495	0.74958	0.66995
117	C	0.118255	0.752827	0.962989
118	H	0.111511	0.759241	0.93345
119	C	0.10226	0.744628	0.756175
120	H	0.078093	0.74314	0.756104
121	H	0.119768	0.766891	0.774671
122	H	0.09957	0.722846	0.773932
123	N	0.118397	0.867136	0.964555
124	C	0.10006	0.853905	0.669204
125	N	0.113884	0.870555	0.70816
126	H	0.135295	0.916122	0.774057
127	H	0.13899	0.321719	0.037869
128	C	0.214443	0.248677	0.338862
129	C	0.19632	0.265685	0.337779
130	C	0.21402	0.300762	0.338214
131	H	0.200418	0.223484	0.338453
132	O	0.196975	0.317638	0.339179
133	H	0.193547	0.320323	0.037971
134	H	0.226781	0.197364	0.005663
135	C	0.214398	0.416326	0.338129
136	C	0.19651	0.433532	0.004935
137	C	0.214552	0.468685	0.00598
138	O	0.197505	0.382402	0.339064
139	H	0.22656	0.032231	0.338497
140	H	0.194826	0.376273	0.037852
141	H	0.200434	0.479753	0.006198
142	N	0.148023	0.254063	0.297332
143	C	0.161291	0.249162	0.002046
144	N	0.144871	0.246645	0.041129
145	C	0.142643	0.400411	0.043777
146	C	0.161257	0.41486	0.003703
147	C	0.146866	0.396955	0.296756
148	H	0.16007	0.403474	0.267255
149	C	0.154393	0.413349	0.089784
150	H	0.17709	0.4375	0.08962
151	H	0.159105	0.395887	0.108474
152	H	0.225849	0.132186	0.107393
153	H	0.13899	0.321719	0.371205
154	C	0.214443	0.248677	0.672197
155	C	0.19632	0.265685	0.671114
156	C	0.21402	0.300762	0.671549
157	H	0.200418	0.223484	0.671788
158	O	0.196975	0.317638	0.67251
159	H	0.193547	0.320323	0.371306
160	H	0.226781	0.197364	0.338997
161	C	0.214398	0.416326	0.671461
162	C	0.19651	0.433532	0.338268
163	C	0.214552	0.468685	0.339314
164	O	0.197505	0.382402	0.672399
165	H	0.22656	0.032231	0.671832
166	H	0.194826	0.376273	0.371188
167	H	0.200434	0.479753	0.339533
168	N	0.148023	0.254063	0.630666
169	C	0.161291	0.249162	0.33538
170	N	0.144871	0.246645	0.374464
171	C	0.142643	0.400411	0.377112
172	C	0.161257	0.41486	0.337036
173	C	0.146866	0.396955	0.630089
174	H	0.16007	0.403474	0.600591
175	C	0.154393	0.413349	0.423116
176	H	0.17709	0.4375	0.422955
177	H	0.159105	0.395887	0.441808
178	H	0.225849	0.132186	0.440725
179	H	0.13899	0.321719	0.704536
180	C	0.214443	0.248677	0.005528
181	C	0.19632	0.265685	0.004449
182	C	0.21402	0.300762	0.004884
183	H	0.200418	0.223484	0.005123
184	O	0.196975	0.317638	0.005845
185	H	0.193547	0.320323	0.704637
186	H	0.226781	0.197364	0.672328
187	C	0.214398	0.416326	0.004796
188	C	0.19651	0.433532	0.671603
189	C	0.214552	0.468685	0.672645
190	O	0.197505	0.382402	0.005731
191	H	0.22656	0.032231	0.005164
192	H	0.194826	0.376273	0.704519
193	H	0.200434	0.479753	0.672865
194	N	0.148023	0.254063	0.963998
195	C	0.161291	0.249162	0.668715
196	N	0.144871	0.246645	0.707795
197	C	0.142643	0.400411	0.710444
198	C	0.161257	0.41486	0.670371
199	C	0.146866	0.396955	0.963425
200	H	0.16007	0.403474	0.933922
201	C	0.154393	0.413349	0.756452
202	H	0.17709	0.4375	0.75629
203	H	0.159105	0.395887	0.77514
204	H	0.225849	0.132186	0.77406
205	H	0.13899	0.82172	0.037869
206	C	0.214444	0.748678	0.338862
207	C	0.196321	0.765686	0.337779
208	C	0.21402	0.800762	0.338214
209	H	0.200419	0.723484	0.338453
210	O	0.196976	0.817638	0.339179
211	H	0.193547	0.820324	0.037971
212	H	0.226781	0.697364	0.005663
213	C	0.214398	0.916326	0.338129
214	C	0.19651	0.933533	0.004935
215	C	0.214553	0.968686	0.00598
216	O	0.197505	0.882402	0.339064
217	H	0.22656	0.53223	0.338497
218	H	0.194826	0.876274	0.037852
219	H	0.200433	0.979754	0.006198
220	N	0.148022	0.754064	0.297332
221	C	0.161291	0.749162	0.002046
222	N	0.14487	0.746646	0.041129
223	C	0.142642	0.900411	0.043777
224	C	0.161257	0.91486	0.003703
225	C	0.146865	0.896956	0.296756
226	H	0.160071	0.903475	0.267255
227	C	0.154393	0.91335	0.089784
228	H	0.177091	0.9375	0.08962
229	H	0.159105	0.895887	0.108474
230	H	0.22585	0.632187	0.107393
231	H	0.13899	0.82172	0.371205
232	C	0.214444	0.748678	0.672197
233	C	0.196321	0.765686	0.671114
234	C	0.21402	0.800762	0.671549
235	H	0.200419	0.723484	0.671788
236	O	0.196976	0.817638	0.67251
237	H	0.193547	0.820324	0.371306
238	H	0.226781	0.697364	0.338997
239	C	0.214398	0.916326	0.671461
240	C	0.19651	0.933533	0.338268
241	C	0.214553	0.968686	0.339314
242	O	0.197505	0.882402	0.672399
243	H	0.22656	0.53223	0.671832
244	H	0.194826	0.876274	0.371188
245	H	0.200433	0.979754	0.339533
246	N	0.148022	0.754064	0.630666
247	C	0.161291	0.749162	0.33538
248	N	0.14487	0.746646	0.374464
249	C	0.142642	0.900411	0.377112
250	C	0.161257	0.91486	0.337036
251	C	0.146865	0.896956	0.630089
252	H	0.160071	0.903475	0.600591
253	C	0.154393	0.91335	0.423116
254	H	0.177091	0.9375	0.422955
255	H	0.159105	0.895887	0.441808
256	H	0.22585	0.632187	0.440725
257	H	0.13899	0.82172	0.704536
258	C	0.214444	0.748678	0.005528
259	C	0.196321	0.765686	0.004449
260	C	0.21402	0.800762	0.004884
261	H	0.200419	0.723484	0.005123
262	O	0.196976	0.817638	0.005845
263	H	0.193547	0.820324	0.704637
264	H	0.226781	0.697364	0.672328
265	C	0.214398	0.916326	0.004796
266	C	0.19651	0.933533	0.671603
267	C	0.214553	0.968686	0.672645
268	O	0.197505	0.882402	0.005731
269	H	0.22656	0.53223	0.005164
270	H	0.194826	0.876274	0.704519
271	H	0.200433	0.979754	0.672865
272	N	0.148022	0.754064	0.963998
273	C	0.161291	0.749162	0.668715
274	N	0.14487	0.746646	0.707795
275	C	0.142642	0.900411	0.710444
276	C	0.161257	0.91486	0.670371
277	C	0.146865	0.896956	0.963425
278	H	0.160071	0.903475	0.933922
279	C	0.154393	0.91335	0.756452
280	H	0.177091	0.9375	0.75629
281	H	0.159105	0.895887	0.77514
282	H	0.22585	0.632187	0.77406
283	C	0.250045	0.265044	0.339337
284	C	0.249114	0.318666	0.004877
285	C	0.266244	0.300637	0.005741
286	C	0.268165	0.247091	0.339354
287	C	0.251967	0.211496	0.0057
288	C	0.269101	0.193471	0.004928
289	H	0.291429	0.314768	0.005815
290	C	0.250144	0.488061	0.339526
291	C	0.266497	0.468812	0.338943
292	C	0.249471	0.433681	0.337772
293	H	0.291689	0.479967	0.338484
294	C	0.268102	0.024134	0.339503
295	C	0.268779	0.078514	0.337617
296	C	0.251753	0.043386	0.338922
297	C	0.269654	0.372566	0.043573
298	C	0.265679	0.353919	0.003598
299	C	0.262251	0.368256	0.296549
300	N	0.261002	0.396784	0.297394
301	C	0.265948	0.415145	0.001935
302	N	0.268557	0.401323	0.041067
303	H	0.255878	0.355099	0.267002
304	C	0.270547	0.36082	0.089692
305	H	0.271998	0.338121	0.089721
306	H	0.248257	0.35611	0.108074
307	H	0.292307	0.379915	0.107486
308	C	0.24857	0.1396	0.043522
309	C	0.25256	0.158216	0.003511
310	C	0.255962	0.143933	0.296419
311	N	0.257236	0.115419	0.297264
312	C	0.252304	0.097051	0.001803
313	N	0.249676	0.11085	0.040956
314	H	0.262348	0.157121	0.266899
315	C	0.247621	0.151304	0.089646
316	H	0.246153	0.173995	0.089687
317	H	0.269897	0.156013	0.108065
318	C	0.250045	0.265044	0.672672
319	C	0.249114	0.318666	0.33821
320	C	0.266244	0.300637	0.339074
321	C	0.268165	0.247091	0.672686
322	C	0.251967	0.211496	0.339034
323	C	0.269101	0.193471	0.338261
324	H	0.291429	0.314768	0.339148
325	C	0.250144	0.488061	0.672861
326	C	0.266497	0.468812	0.672278
327	C	0.249471	0.433681	0.671107
328	H	0.291689	0.479967	0.671819
329	C	0.268102	0.024134	0.672838
330	C	0.268779	0.078514	0.670952
331	C	0.251753	0.043386	0.672254
332	C	0.269654	0.372566	0.376907
333	C	0.265679	0.353919	0.33693
334	C	0.262251	0.368256	0.629884
335	N	0.261002	0.396784	0.630727
336	C	0.265948	0.415145	0.335266
337	N	0.268557	0.401323	0.3744
338	H	0.255878	0.355099	0.600338
339	C	0.270547	0.36082	0.423025
340	H	0.271998	0.338121	0.423056
341	H	0.248257	0.35611	0.441407
342	H	0.292307	0.379915	0.44082
343	C	0.24857	0.1396	0.376856
344	C	0.25256	0.158216	0.336842
345	C	0.255962	0.143933	0.629752
346	N	0.257236	0.115419	0.630599
347	C	0.252304	0.097051	0.335134
348	N	0.249676	0.11085	0.374288
349	H	0.262348	0.157121	0.600233
350	C	0.247621	0.151304	0.422982
351	H	0.246153	0.173995	0.423022
352	H	0.269897	0.156013	0.4414
353	C	0.250045	0.265044	0.006007
354	C	0.249114	0.318666	0.671542
355	C	0.266244	0.300637	0.672409
356	C	0.268165	0.247091	0.006021
357	C	0.251967	0.211496	0.672369
358	C	0.269101	0.193471	0.671593
359	H	0.291429	0.314768	0.672483
360	C	0.250144	0.488061	0.006192
361	C	0.266497	0.468812	0.005613
362	C	0.249471	0.433681	0.004442
363	H	0.291689	0.479967	0.005154
364	C	0.268102	0.024134	0.00617
365	C	0.268779	0.078514	0.004283
366	C	0.251753	0.043386	0.005589
367	C	0.269654	0.372566	0.710242
368	C	0.265679	0.353919	0.670263
369	C	0.262251	0.368256	0.963215
370	N	0.261002	0.396784	0.964062
371	C	0.265948	0.415145	0.6686
372	N	0.268557	0.401323	0.707735
373	H	0.255878	0.355099	0.933669
374	C	0.270547	0.36082	0.75636
375	H	0.271998	0.338121	0.756387
376	H	0.248257	0.35611	0.774742
377	H	0.292307	0.379915	0.774155
378	C	0.24857	0.1396	0.710191
379	C	0.25256	0.158216	0.670176
380	C	0.255962	0.143933	0.963087
381	N	0.257236	0.115419	0.963931
382	C	0.252304	0.097051	0.668468
383	N	0.249676	0.11085	0.707623
384	H	0.262348	0.157121	0.933568
385	C	0.247621	0.151304	0.756313
386	H	0.246153	0.173995	0.756354
387	H	0.269897	0.156013	0.774732
388	C	0.250045	0.765045	0.339337
389	C	0.249115	0.818667	0.004877
390	C	0.266244	0.800638	0.005741
391	C	0.268164	0.74709	0.339354
392	C	0.251967	0.711497	0.0057
393	C	0.269101	0.693471	0.004928
394	H	0.29143	0.814769	0.005815
395	C	0.250145	0.988061	0.339526
396	C	0.266496	0.968813	0.338943
397	C	0.249473	0.933682	0.337772
398	H	0.291689	0.979967	0.338484
399	C	0.268103	0.524133	0.339503
400	C	0.268781	0.578516	0.337617
401	C	0.251754	0.543387	0.338922
402	C	0.269654	0.872567	0.043573
403	C	0.265679	0.853919	0.003598
404	C	0.262251	0.868257	0.296549
405	N	0.261003	0.896784	0.297393
406	C	0.265948	0.915146	0.001935
407	N	0.268556	0.901321	0.041067
408	H	0.255878	0.8551	0.267002
409	C	0.270547	0.860821	0.089692
410	H	0.271999	0.838122	0.089721
411	H	0.248257	0.856111	0.108074
412	H	0.292307	0.879916	0.107486
413	C	0.248571	0.639601	0.043522
414	C	0.25256	0.658216	0.003511
415	C	0.255962	0.643933	0.296419
416	N	0.257237	0.61542	0.297264
417	C	0.252304	0.597051	0.001803
418	N	0.249676	0.610849	0.040956
419	H	0.262348	0.65712	0.266899
420	C	0.247621	0.651304	0.089646
421	H	0.246154	0.673996	0.089687
422	H	0.269898	0.656015	0.108065
423	C	0.250045	0.765045	0.672672
424	C	0.249115	0.818667	0.33821
425	C	0.266244	0.800638	0.339074
426	C	0.268164	0.74709	0.672686
427	C	0.251967	0.711497	0.339034
428	C	0.269101	0.693471	0.338261
429	H	0.29143	0.814769	0.339148
430	C	0.250145	0.988061	0.672861
431	C	0.266496	0.968813	0.672278
432	C	0.249473	0.933682	0.671107
433	H	0.291689	0.979967	0.671819
434	C	0.268103	0.524133	0.672838
435	C	0.268781	0.578516	0.670952
436	C	0.251754	0.543387	0.672254
437	C	0.269654	0.872567	0.376907
438	C	0.265679	0.853919	0.33693
439	C	0.262251	0.868257	0.629884
440	N	0.261003	0.896784	0.630727
441	C	0.265948	0.915146	0.335266
442	N	0.268556	0.901321	0.3744
443	H	0.255878	0.8551	0.600338
444	C	0.270547	0.860821	0.423025
445	H	0.271999	0.838122	0.423056
446	H	0.248257	0.856111	0.441407
447	H	0.292307	0.879916	0.44082
448	C	0.248571	0.639601	0.376856
449	C	0.25256	0.658216	0.336842
450	C	0.255962	0.643933	0.629752
451	N	0.257237	0.61542	0.630599
452	C	0.252304	0.597051	0.335134
453	N	0.249676	0.610849	0.374288
454	H	0.262348	0.65712	0.600233
455	C	0.247621	0.651304	0.422982
456	H	0.246154	0.673996	0.423022
457	H	0.269898	0.656015	0.4414
458	C	0.250045	0.765045	0.006007
459	C	0.249115	0.818667	0.671542
460	C	0.266244	0.800638	0.672409
461	C	0.268164	0.74709	0.006021
462	C	0.251967	0.711497	0.672369
463	C	0.269101	0.693471	0.671593
464	H	0.29143	0.814769	0.672483
465	C	0.250145	0.988061	0.006192
466	C	0.266496	0.968813	0.005613
467	C	0.249473	0.933682	0.004442
468	H	0.291689	0.979967	0.005154
469	C	0.268103	0.524133	0.00617
470	C	0.268781	0.578516	0.004283
471	C	0.251754	0.543387	0.005589
472	C	0.269654	0.872567	0.710242
473	C	0.265679	0.853919	0.670263
474	C	0.262251	0.868257	0.963215
475	N	0.261003	0.896784	0.964062
476	C	0.265948	0.915146	0.6686
477	N	0.268556	0.901321	0.707735
478	H	0.255878	0.8551	0.933669
479	C	0.270547	0.860821	0.75636
480	H	0.271999	0.838122	0.756387
481	H	0.248257	0.856111	0.774742
482	H	0.292307	0.879916	0.774155
483	C	0.248571	0.639601	0.710191
484	C	0.25256	0.658216	0.670176
485	C	0.255962	0.643933	0.963087
486	N	0.257237	0.61542	0.963931
487	C	0.252304	0.597051	0.668468
488	N	0.249676	0.610849	0.707623
489	H	0.262348	0.65712	0.933568
490	C	0.247621	0.651304	0.756313
491	H	0.246154	0.673996	0.756354
492	H	0.269898	0.656015	0.774732
493	C	0.49114	0.247026	0.339509
494	C	0.47175	0.263226	0.005694
495	C	0.436593	0.246093	0.004823
496	C	0.419405	0.211002	0.338146
497	C	0.436782	0.193302	0.337873
498	C	0.471908	0.211423	0.339216
499	O	0.385479	0.193965	0.339105
500	H	0.483074	0.197395	0.339142
501	H	0.379358	0.190513	0.037893
502	H	0.4828	0.288412	0.005549
503	C	0.304194	0.211377	0.338362
504	C	0.321889	0.246452	0.337903
505	C	0.303766	0.263459	0.338956
506	O	0.321233	0.194494	0.339388
507	H	0.317794	0.288655	0.338629
508	H	0.324699	0.191873	0.038191
509	C	0.303695	0.043507	0.005933
510	C	0.32174	0.078659	0.00482
511	C	0.303855	0.095869	0.33792
512	O	0.320751	0.129794	0.338777
513	H	0.323465	0.135961	0.037551
514	H	0.317813	0.03244	0.006198
515	C	0.403448	0.266684	0.043514
516	C	0.417875	0.262617	0.003318
517	C	0.399984	0.259261	0.296465
518	N	0.370203	0.257989	0.297695
519	C	0.356898	0.262945	0.002394
520	N	0.373597	0.265603	0.041274
521	H	0.406613	0.252764	0.266904
522	C	0.416357	0.267807	0.08953
523	H	0.440536	0.269322	0.089378
524	H	0.398909	0.24558	0.108139
525	H	0.419063	0.289622	0.107219
526	C	0.375591	0.111787	0.043665
527	C	0.356982	0.097322	0.003568
528	C	0.371486	0.115268	0.296682
529	N	0.399981	0.145063	0.297842
530	C	0.418277	0.158272	0.002525
531	N	0.404378	0.141622	0.041445
532	H	0.358325	0.108773	0.267148
533	C	0.363805	0.098863	0.08967
534	H	0.341099	0.074721	0.089505
535	H	0.359096	0.11634	0.108327
536	H	0.382879	0.096079	0.107316
537	C	0.49114	0.247026	0.672841
538	C	0.47175	0.263226	0.339027
539	C	0.436593	0.246093	0.338156
540	C	0.419405	0.211002	0.671481
541	C	0.436782	0.193302	0.671205
542	C	0.471908	0.211423	0.672548
543	O	0.385479	0.193965	0.672436
544	H	0.483074	0.197395	0.672477
545	H	0.379358	0.190513	0.371228
546	H	0.4828	0.288412	0.338882
547	C	0.304194	0.211377	0.671697
548	C	0.321889	0.246452	0.671235
549	C	0.303766	0.263459	0.672288
550	O	0.321233	0.194494	0.672723
551	H	0.317794	0.288655	0.671964
552	H	0.324699	0.191873	0.371525
553	C	0.303695	0.043507	0.339266
554	C	0.32174	0.078659	0.338153
555	C	0.303855	0.095869	0.671252
556	O	0.320751	0.129794	0.672109
557	H	0.323465	0.135961	0.370884
558	H	0.317813	0.03244	0.339533
559	C	0.403448	0.266684	0.376849
560	C	0.417875	0.262617	0.33665
561	C	0.399984	0.259261	0.629799
562	N	0.370203	0.257989	0.631027
563	C	0.356898	0.262945	0.335726
564	N	0.373597	0.265603	0.374609
565	H	0.406613	0.252764	0.600237
566	C	0.416357	0.267807	0.422863
567	H	0.440536	0.269322	0.422712
568	H	0.398909	0.24558	0.441471
569	H	0.419063	0.289622	0.440553
570	C	0.375591	0.111787	0.376998
571	C	0.356982	0.097322	0.3369
572	C	0.371486	0.115268	0.630015
573	N	0.399981	0.145063	0.631176
574	C	0.418277	0.158272	0.335856
575	N	0.404378	0.141622	0.374778
576	H	0.358325	0.108773	0.600483
577	C	0.363805	0.098863	0.423005
578	H	0.341099	0.074721	0.42284
579	H	0.359096	0.11634	0.44166
580	H	0.382879	0.096079	0.440651
581	C	0.49114	0.247026	0.006174
582	C	0.47175	0.263226	0.672362
583	C	0.436593	0.246093	0.671491
584	C	0.419405	0.211002	0.004816
585	C	0.436782	0.193302	0.00454
586	C	0.471908	0.211423	0.005883
587	O	0.385479	0.193965	0.005771
588	H	0.483074	0.197395	0.005812
589	H	0.379358	0.190513	0.70456
590	H	0.4828	0.288412	0.672217
591	C	0.304194	0.211377	0.005029
592	C	0.321889	0.246452	0.00457
593	C	0.303766	0.263459	0.005623
594	O	0.321233	0.194494	0.006058
595	H	0.317794	0.288655	0.005296
596	H	0.324699	0.191873	0.70486
597	C	0.303695	0.043507	0.672598
598	C	0.32174	0.078659	0.671488
599	C	0.303855	0.095869	0.004587
600	O	0.320751	0.129794	0.005444
601	H	0.323465	0.135961	0.704219
602	H	0.317813	0.03244	0.672865
603	C	0.403448	0.266684	0.710181
604	C	0.417875	0.262617	0.669983
605	C	0.399984	0.259261	0.963134
606	N	0.370203	0.257989	0.964362
607	C	0.356898	0.262945	0.669059
608	N	0.373597	0.265603	0.707941
609	H	0.406613	0.252764	0.933572
610	C	0.416357	0.267807	0.756198
611	H	0.440536	0.269322	0.756047
612	H	0.398909	0.24558	0.774806
613	H	0.419063	0.289622	0.773888
614	C	0.375591	0.111787	0.710333
615	C	0.356982	0.097322	0.670233
616	C	0.371486	0.115268	0.96335
617	N	0.399981	0.145063	0.964511
618	C	0.418277	0.158272	0.66919
619	N	0.404378	0.141622	0.708113
620	H	0.358325	0.108773	0.933818
621	C	0.363805	0.098863	0.756337
622	H	0.341099	0.074721	0.756171
623	H	0.359096	0.11634	0.774995
624	H	0.382879	0.096079	0.773983
625	C	0.49114	0.747026	0.339509
626	C	0.471749	0.763226	0.005694
627	C	0.436594	0.746094	0.004823
628	C	0.419404	0.711003	0.338146
629	C	0.436781	0.693302	0.337873
630	C	0.471906	0.711423	0.339216
631	O	0.38548	0.693965	0.339105
632	H	0.483075	0.697396	0.339142
633	H	0.379358	0.690512	0.037893
634	H	0.482801	0.788412	0.005549
635	C	0.304194	0.711378	0.338362
636	C	0.321889	0.746452	0.337903
637	C	0.303766	0.76346	0.338956
638	O	0.321234	0.694494	0.339388
639	H	0.317795	0.788656	0.338629
640	H	0.324699	0.691873	0.038191
641	C	0.303695	0.543506	0.005933
642	C	0.321739	0.57866	0.00482
643	C	0.303855	0.595869	0.33792
644	O	0.320752	0.629795	0.338777
645	H	0.323464	0.635961	0.037551
646	H	0.317814	0.532441	0.006198
647	C	0.403446	0.766682	0.043514
648	C	0.417876	0.762618	0.003318
649	C	0.399983	0.759261	0.296465
650	N	0.370205	0.757989	0.297695
651	C	0.356899	0.762945	0.002394
652	N	0.373598	0.765604	0.041274
653	H	0.406613	0.752762	0.266904
654	C	0.416357	0.767807	0.08953
655	H	0.440535	0.769323	0.089378
656	H	0.39891	0.74558	0.108139
657	H	0.419064	0.789622	0.107219
658	C	0.375592	0.611788	0.043665
659	C	0.356982	0.597322	0.003568
660	C	0.371487	0.615269	0.296682
661	N	0.399982	0.645064	0.297842
662	C	0.418277	0.658273	0.002525
663	N	0.404377	0.641623	0.041445
664	H	0.358324	0.608772	0.267148
665	C	0.363804	0.598862	0.08967
666	H	0.341098	0.574722	0.089505
667	H	0.359095	0.61634	0.108327
668	H	0.38288	0.59608	0.107316
669	C	0.49114	0.747026	0.672841
670	C	0.471749	0.763226	0.339027
671	C	0.436594	0.746094	0.338156
672	C	0.419404	0.711003	0.671481
673	C	0.436781	0.693302	0.671205
674	C	0.471906	0.711423	0.672548
675	O	0.38548	0.693965	0.672436
676	H	0.483075	0.697396	0.672477
677	H	0.379358	0.690512	0.371228
678	H	0.482801	0.788412	0.338882
679	C	0.304194	0.711378	0.671697
680	C	0.321889	0.746452	0.671235
681	C	0.303766	0.76346	0.672288
682	O	0.321234	0.694494	0.672723
683	H	0.317795	0.788656	0.671964
684	H	0.324699	0.691873	0.371525
685	C	0.303695	0.543506	0.339266
686	C	0.321739	0.57866	0.338153
687	C	0.303855	0.595869	0.671252
688	O	0.320752	0.629795	0.672109
689	H	0.323464	0.635961	0.370884
690	H	0.317814	0.532441	0.339533
691	C	0.403446	0.766682	0.376849
692	C	0.417876	0.762618	0.33665
693	C	0.399983	0.759261	0.629799
694	N	0.370205	0.757989	0.631027
695	C	0.356899	0.762945	0.335726
696	N	0.373598	0.765604	0.374609
697	H	0.406613	0.752762	0.600237
698	C	0.416357	0.767807	0.422863
699	H	0.440535	0.769323	0.422712
700	H	0.39891	0.74558	0.441471
701	H	0.419064	0.789622	0.440553
702	C	0.375592	0.611788	0.376998
703	C	0.356982	0.597322	0.3369
704	C	0.371487	0.615269	0.630015
705	N	0.399982	0.645064	0.631176
706	C	0.418277	0.658273	0.335856
707	N	0.404377	0.641623	0.374778
708	H	0.358324	0.608772	0.600483
709	C	0.363804	0.598862	0.423005
710	H	0.341098	0.574722	0.42284
711	H	0.359095	0.61634	0.44166
712	H	0.38288	0.59608	0.440651
713	C	0.49114	0.747026	0.006174
714	C	0.471749	0.763226	0.672362
715	C	0.436594	0.746094	0.671491
716	C	0.419404	0.711003	0.004816
717	C	0.436781	0.693302	0.00454
718	C	0.471906	0.711423	0.005883
719	O	0.38548	0.693965	0.005771
720	H	0.483075	0.697396	0.005812
721	H	0.379358	0.690512	0.70456
722	H	0.482801	0.788412	0.672217
723	C	0.304194	0.711378	0.005029
724	C	0.321889	0.746452	0.00457
725	C	0.303766	0.76346	0.005623
726	O	0.321234	0.694494	0.006058
727	H	0.317795	0.788656	0.005296
728	H	0.324699	0.691873	0.70486
729	C	0.303695	0.543506	0.672598
730	C	0.321739	0.57866	0.671488
731	C	0.303855	0.595869	0.004587
732	O	0.320752	0.629795	0.005444
733	H	0.323464	0.635961	0.704219
734	H	0.317814	0.532441	0.672865
735	C	0.403446	0.766682	0.710181
736	C	0.417876	0.762618	0.669983
737	C	0.399983	0.759261	0.963134
738	N	0.370205	0.757989	0.964362
739	C	0.356899	0.762945	0.669059
740	N	0.373598	0.765604	0.707941
741	H	0.406613	0.752762	0.933572
742	C	0.416357	0.767807	0.756198
743	H	0.440535	0.769323	0.756047
744	H	0.39891	0.74558	0.774806
745	H	0.419064	0.789622	0.773888
746	C	0.375592	0.611788	0.710333
747	C	0.356982	0.597322	0.670233
748	C	0.371487	0.615269	0.96335
749	N	0.399982	0.645064	0.964511
750	C	0.418277	0.658273	0.66919
751	N	0.404377	0.641623	0.708113
752	H	0.358324	0.608772	0.933818
753	C	0.363804	0.598862	0.756337
754	H	0.341098	0.574722	0.756171
755	H	0.359095	0.61634	0.774995
756	H	0.38288	0.59608	0.773983
757	C	0.527212	0.265146	0.339506
758	C	0.546441	0.300747	0.339226
759	C	0.581564	0.318875	0.337873
760	C	0.598945	0.301179	0.338136
761	C	0.581764	0.26609	0.00481
762	C	0.546607	0.248948	0.005667
763	H	0.535273	0.314776	0.339196
764	O	0.632868	0.318219	0.339081
765	C	0.99114	0.247026	0.339509
766	C	0.97175	0.263226	0.005694
767	C	0.936593	0.246093	0.004823
768	C	0.919405	0.211002	0.338146
769	C	0.936782	0.193302	0.337873
770	C	0.971908	0.211423	0.339216
771	O	0.885479	0.193965	0.339105
772	H	0.983074	0.197395	0.339142
773	H	0.63899	0.321719	0.037869
774	H	0.879358	0.190513	0.037893
775	H	0.535557	0.223763	0.005505
776	H	0.9828	0.288412	0.005549
777	C	0.750046	0.265044	0.339337
778	C	0.714443	0.248677	0.338862
779	C	0.69632	0.265685	0.337779
780	C	0.71402	0.300762	0.338214
781	C	0.749115	0.318666	0.004877
782	C	0.766244	0.300637	0.005741
783	H	0.700418	0.223484	0.338453
784	O	0.696976	0.317638	0.339179
785	C	0.768165	0.247091	0.339354
786	C	0.751966	0.211496	0.0057
787	C	0.769101	0.193471	0.004928
788	C	0.804195	0.211377	0.338362
789	C	0.821889	0.246452	0.337903
790	C	0.803766	0.263459	0.338956
791	O	0.821233	0.194494	0.339388
792	H	0.817795	0.288655	0.338629
793	H	0.693546	0.320323	0.037971
794	H	0.824699	0.191873	0.038191
795	H	0.791429	0.314768	0.005815
796	H	0.726782	0.197364	0.005663
797	C	0.750145	0.488061	0.339526
798	C	0.766496	0.468812	0.338943
799	C	0.749472	0.433681	0.337772
800	C	0.714398	0.416326	0.338129
801	C	0.69651	0.433532	0.004935
802	C	0.714553	0.468685	0.00598
803	H	0.791688	0.479967	0.338484
804	O	0.697505	0.382402	0.339064
805	C	0.768104	0.024134	0.339503
806	C	0.803695	0.043507	0.005933
807	C	0.82174	0.078659	0.00482
808	C	0.803855	0.095869	0.33792
809	C	0.768779	0.078514	0.337617
810	C	0.751753	0.043386	0.338922
811	O	0.820751	0.129794	0.338777
812	H	0.72656	0.032231	0.338497
813	H	0.694826	0.376273	0.037852
814	H	0.823465	0.135961	0.037551
815	H	0.700433	0.479753	0.006198
816	H	0.817813	0.03244	0.006198
817	C	0.615054	0.245633	0.043449
818	C	0.600495	0.249579	0.003285
819	C	0.618256	0.252829	0.296321
820	N	0.648024	0.254063	0.297332
821	C	0.66129	0.249162	0.002046
822	N	0.64487	0.246645	0.041129
823	H	0.611511	0.259241	0.266783
824	C	0.60226	0.244628	0.089508
825	H	0.578093	0.243141	0.089437
826	H	0.619768	0.26689	0.108002
827	H	0.59957	0.222846	0.107265
828	C	0.769654	0.372566	0.043573
829	C	0.765679	0.353919	0.003598
830	C	0.762251	0.368256	0.296549
831	N	0.761003	0.396784	0.297394
832	C	0.765947	0.415145	0.001935
833	N	0.768556	0.401323	0.041067
834	H	0.755877	0.355099	0.267002
835	C	0.770547	0.36082	0.089692
836	H	0.771999	0.338121	0.089721
837	H	0.748256	0.35611	0.108074
838	H	0.792307	0.379915	0.107486
839	C	0.642642	0.400411	0.043777
840	C	0.661257	0.41486	0.003703
841	C	0.646865	0.396955	0.296756
842	N	0.618398	0.367138	0.297887
843	C	0.60006	0.353904	0.002539
844	N	0.613884	0.370554	0.041492
845	H	0.660071	0.403474	0.267255
846	C	0.654393	0.413349	0.089784
847	H	0.67709	0.4375	0.08962
848	H	0.659105	0.395887	0.108474
849	H	0.635295	0.416122	0.107389
850	C	0.903448	0.266684	0.043514
851	C	0.917875	0.262617	0.003318
852	C	0.899984	0.259261	0.296465
853	N	0.870203	0.257989	0.297695
854	C	0.8569	0.262945	0.002394
855	N	0.873597	0.265603	0.041274
856	H	0.906615	0.252764	0.266904
857	C	0.916357	0.267807	0.08953
858	H	0.940536	0.269322	0.089378
859	H	0.898909	0.24558	0.108139
860	H	0.919063	0.289622	0.107219
861	C	0.74857	0.1396	0.043522
862	C	0.75256	0.158216	0.003511
863	C	0.755963	0.143933	0.296419
864	N	0.757235	0.115419	0.297264
865	C	0.752303	0.097051	0.001803
866	N	0.749675	0.11085	0.040956
867	H	0.762348	0.157121	0.266899
868	C	0.747621	0.151304	0.089646
869	H	0.746153	0.173995	0.089687
870	H	0.769897	0.156013	0.108065
871	H	0.725849	0.132186	0.107393
872	C	0.875591	0.111787	0.043665
873	C	0.856982	0.097322	0.003568
874	C	0.871486	0.115268	0.296682
875	N	0.899981	0.145063	0.297842
876	C	0.918277	0.158272	0.002525
877	N	0.904378	0.141622	0.041445
878	H	0.858325	0.108773	0.267148
879	C	0.863805	0.098863	0.08967
880	H	0.841099	0.074721	0.089505
881	H	0.859096	0.11634	0.108327
882	H	0.882879	0.096079	0.107316
883	C	0.527212	0.265146	0.672838
884	C	0.546441	0.300747	0.672561
885	C	0.581564	0.318875	0.671208
886	C	0.598945	0.301179	0.671471
887	C	0.581764	0.26609	0.338143
888	C	0.546607	0.248948	0.339
889	H	0.535273	0.314776	0.672531
890	O	0.632868	0.318219	0.672416
891	C	0.99114	0.247026	0.672841
892	C	0.97175	0.263226	0.339027
893	C	0.936593	0.246093	0.338156
894	C	0.919405	0.211002	0.671481
895	C	0.936782	0.193302	0.671205
896	C	0.971908	0.211423	0.672548
897	O	0.885479	0.193965	0.672436
898	H	0.983074	0.197395	0.672477
899	H	0.63899	0.321719	0.371205
900	H	0.879358	0.190513	0.371228
901	H	0.535557	0.223763	0.338838
902	H	0.9828	0.288412	0.338882
903	C	0.750046	0.265044	0.672672
904	C	0.714443	0.248677	0.672197
905	C	0.69632	0.265685	0.671114
906	C	0.71402	0.300762	0.671549
907	C	0.749115	0.318666	0.33821
908	C	0.766244	0.300637	0.339074
909	H	0.700418	0.223484	0.671788
910	O	0.696976	0.317638	0.67251
911	C	0.768165	0.247091	0.672686
912	C	0.751966	0.211496	0.339034
913	C	0.769101	0.193471	0.338261
914	C	0.804195	0.211377	0.671697
915	C	0.821889	0.246452	0.671235
916	C	0.803766	0.263459	0.672288
917	O	0.821233	0.194494	0.672723
918	H	0.817795	0.288655	0.671964
919	H	0.693546	0.320323	0.371306
920	H	0.824699	0.191873	0.371525
921	H	0.791429	0.314768	0.339148
922	H	0.726782	0.197364	0.338997
923	C	0.750145	0.488061	0.672861
924	C	0.766496	0.468812	0.672278
925	C	0.749472	0.433681	0.671107
926	C	0.714398	0.416326	0.671461
927	C	0.69651	0.433532	0.338268
928	C	0.714553	0.468685	0.339314
929	H	0.791688	0.479967	0.671819
930	O	0.697505	0.382402	0.672399
931	C	0.768104	0.024134	0.672838
932	C	0.803695	0.043507	0.339266
933	C	0.82174	0.078659	0.338153
934	C	0.803855	0.095869	0.671252
935	C	0.768779	0.078514	0.670952
936	C	0.751753	0.043386	0.672254
937	O	0.820751	0.129794	0.672109
938	H	0.72656	0.032231	0.671832
939	H	0.694826	0.376273	0.371188
940	H	0.823465	0.135961	0.370884
941	H	0.700433	0.479753	0.339533
942	H	0.817813	0.03244	0.339533
943	C	0.615054	0.245633	0.376782
944	C	0.600495	0.249579	0.336616
945	C	0.618256	0.252829	0.629654
946	N	0.648024	0.254063	0.630666
947	C	0.66129	0.249162	0.33538
948	N	0.64487	0.246645	0.374464
949	H	0.611511	0.259241	0.600118
950	C	0.60226	0.244628	0.422843
951	H	0.578093	0.243141	0.422769
952	H	0.619768	0.26689	0.441336
953	H	0.59957	0.222846	0.4406
954	C	0.769654	0.372566	0.376907
955	C	0.765679	0.353919	0.33693
956	C	0.762251	0.368256	0.629884
957	N	0.761003	0.396784	0.630727
958	C	0.765947	0.415145	0.335266
959	N	0.768556	0.401323	0.3744
960	H	0.755877	0.355099	0.600338
961	C	0.770547	0.36082	0.423025
962	H	0.771999	0.338121	0.423056
963	H	0.748256	0.35611	0.441407
964	H	0.792307	0.379915	0.44082
965	C	0.642642	0.400411	0.377112
966	C	0.661257	0.41486	0.337036
967	C	0.646865	0.396955	0.630089
968	N	0.618398	0.367138	0.63122
969	C	0.60006	0.353904	0.335871
970	N	0.613884	0.370554	0.374825
971	H	0.660071	0.403474	0.600591
972	C	0.654393	0.413349	0.423116
973	H	0.67709	0.4375	0.422955
974	H	0.659105	0.395887	0.441808
975	H	0.635295	0.416122	0.440722
976	C	0.903448	0.266684	0.376849
977	C	0.917875	0.262617	0.33665
978	C	0.899984	0.259261	0.629799
979	N	0.870203	0.257989	0.631027
980	C	0.8569	0.262945	0.335726
981	N	0.873597	0.265603	0.374609
982	H	0.906615	0.252764	0.600237
983	C	0.916357	0.267807	0.422863
984	H	0.940536	0.269322	0.422712
985	H	0.898909	0.24558	0.441471
986	H	0.919063	0.289622	0.440553
987	C	0.74857	0.1396	0.376856
988	C	0.75256	0.158216	0.336842
989	C	0.755963	0.143933	0.629752
990	N	0.757235	0.115419	0.630599
991	C	0.752303	0.097051	0.335134
992	N	0.749675	0.11085	0.374288
993	H	0.762348	0.157121	0.600233
994	C	0.747621	0.151304	0.422982
995	H	0.746153	0.173995	0.423022
996	H	0.769897	0.156013	0.4414
997	H	0.725849	0.132186	0.440725
998	C	0.875591	0.111787	0.376998
999	C	0.856982	0.097322	0.3369
1000	C	0.871486	0.115268	0.630015
1001	N	0.899981	0.145063	0.631176
1002	C	0.918277	0.158272	0.335856
1003	N	0.904378	0.141622	0.374778
1004	H	0.858325	0.108773	0.600483
1005	C	0.863805	0.098863	0.423005
1006	H	0.841099	0.074721	0.42284
1007	H	0.859096	0.11634	0.44166
1008	H	0.882879	0.096079	0.440651
1009	C	0.527212	0.265146	0.006171
1010	C	0.546441	0.300747	0.005896
1011	C	0.581564	0.318875	0.00454
1012	C	0.598945	0.301179	0.004806
1013	C	0.581764	0.26609	0.671478
1014	C	0.546607	0.248948	0.672335
1015	H	0.535273	0.314776	0.005866
1016	O	0.632868	0.318219	0.005748
1017	C	0.99114	0.247026	0.006174
1018	C	0.97175	0.263226	0.672362
1019	C	0.936593	0.246093	0.671491
1020	C	0.919405	0.211002	0.004816
1021	C	0.936782	0.193302	0.00454
1022	C	0.971908	0.211423	0.005883
1023	O	0.885479	0.193965	0.005771
1024	H	0.983074	0.197395	0.005812
1025	H	0.63899	0.321719	0.704536
1026	H	0.879358	0.190513	0.70456
1027	H	0.535557	0.223763	0.672173
1028	H	0.9828	0.288412	0.672217
1029	C	0.750046	0.265044	0.006007
1030	C	0.714443	0.248677	0.005528
1031	C	0.69632	0.265685	0.004449
1032	C	0.71402	0.300762	0.004884
1033	C	0.749115	0.318666	0.671542
1034	C	0.766244	0.300637	0.672409
1035	H	0.700418	0.223484	0.005123
1036	O	0.696976	0.317638	0.005845
1037	C	0.768165	0.247091	0.006021
1038	C	0.751966	0.211496	0.672369
1039	C	0.769101	0.193471	0.671593
1040	C	0.804195	0.211377	0.005029
1041	C	0.821889	0.246452	0.00457
1042	C	0.803766	0.263459	0.005623
1043	O	0.821233	0.194494	0.006058
1044	H	0.817795	0.288655	0.005296
1045	H	0.693546	0.320323	0.704637
1046	H	0.824699	0.191873	0.70486
1047	H	0.791429	0.314768	0.672483
1048	H	0.726782	0.197364	0.672328
1049	C	0.750145	0.488061	0.006192
1050	C	0.766496	0.468812	0.005613
1051	C	0.749472	0.433681	0.004442
1052	C	0.714398	0.416326	0.004796
1053	C	0.69651	0.433532	0.671603
1054	C	0.714553	0.468685	0.672645
1055	H	0.791688	0.479967	0.005154
1056	O	0.697505	0.382402	0.005731
1057	C	0.768104	0.024134	0.00617
1058	C	0.803695	0.043507	0.672598
1059	C	0.82174	0.078659	0.671488
1060	C	0.803855	0.095869	0.004587
1061	C	0.768779	0.078514	0.004283
1062	C	0.751753	0.043386	0.005589
1063	O	0.820751	0.129794	0.005444
1064	H	0.72656	0.032231	0.005164
1065	H	0.694826	0.376273	0.704519
1066	H	0.823465	0.135961	0.704219
1067	H	0.700433	0.479753	0.672865
1068	H	0.817813	0.03244	0.672865
1069	C	0.615054	0.245633	0.710117
1070	C	0.600495	0.249579	0.66995
1071	C	0.618256	0.252829	0.962989
1072	N	0.648024	0.254063	0.963998
1073	C	0.66129	0.249162	0.668715
1074	N	0.64487	0.246645	0.707795
1075	H	0.611511	0.259241	0.93345
1076	C	0.60226	0.244628	0.756175
1077	H	0.578093	0.243141	0.756104
1078	H	0.619768	0.26689	0.774671
1079	H	0.59957	0.222846	0.773932
1080	C	0.769654	0.372566	0.710242
1081	C	0.765679	0.353919	0.670263
1082	C	0.762251	0.368256	0.963215
1083	N	0.761003	0.396784	0.964062
1084	C	0.765947	0.415145	0.6686
1085	N	0.768556	0.401323	0.707735
1086	H	0.755877	0.355099	0.933669
1087	C	0.770547	0.36082	0.75636
1088	H	0.771999	0.338121	0.756387
1089	H	0.748256	0.35611	0.774742
1090	H	0.792307	0.379915	0.774155
1091	C	0.642642	0.400411	0.710444
1092	C	0.661257	0.41486	0.670371
1093	C	0.646865	0.396955	0.963425
1094	N	0.618398	0.367138	0.964555
1095	C	0.60006	0.353904	0.669204
1096	N	0.613884	0.370554	0.70816
1097	H	0.660071	0.403474	0.933922
1098	C	0.654393	0.413349	0.756452
1099	H	0.67709	0.4375	0.75629
1100	H	0.659105	0.395887	0.77514
1101	H	0.635295	0.416122	0.774057
1102	C	0.903448	0.266684	0.710181
1103	C	0.917875	0.262617	0.669983
1104	C	0.899984	0.259261	0.963134
1105	N	0.870203	0.257989	0.964362
1106	C	0.8569	0.262945	0.669059
1107	N	0.873597	0.265603	0.707941
1108	H	0.906615	0.252764	0.933572
1109	C	0.916357	0.267807	0.756198
1110	H	0.940536	0.269322	0.756047
1111	H	0.898909	0.24558	0.774806
1112	H	0.919063	0.289622	0.773888
1113	C	0.74857	0.1396	0.710191
1114	C	0.75256	0.158216	0.670176
1115	C	0.755963	0.143933	0.963087
1116	N	0.757235	0.115419	0.963931
1117	C	0.752303	0.097051	0.668468
1118	N	0.749675	0.11085	0.707623
1119	H	0.762348	0.157121	0.933568
1120	C	0.747621	0.151304	0.756313
1121	H	0.746153	0.173995	0.756354
1122	H	0.769897	0.156013	0.774732
1123	H	0.725849	0.132186	0.77406
1124	C	0.875591	0.111787	0.710333
1125	C	0.856982	0.097322	0.670233
1126	C	0.871486	0.115268	0.96335
1127	N	0.899981	0.145063	0.964511
1128	C	0.918277	0.158272	0.66919
1129	N	0.904378	0.141622	0.708113
1130	H	0.858325	0.108773	0.933818
1131	C	0.863805	0.098863	0.756337
1132	H	0.841099	0.074721	0.756171
1133	H	0.859096	0.11634	0.774995
1134	H	0.882879	0.096079	0.773983
1135	C	0.527211	0.765144	0.339506
1136	C	0.54644	0.800747	0.339226
1137	C	0.581565	0.818875	0.337873
1138	C	0.598946	0.801179	0.338136
1139	C	0.581763	0.766088	0.00481
1140	C	0.546607	0.748949	0.005667
1141	H	0.535272	0.814774	0.339196
1142	O	0.632868	0.81822	0.339081
1143	C	0.99114	0.747026	0.339509
1144	C	0.97175	0.763226	0.005694
1145	C	0.936594	0.746094	0.004823
1146	C	0.919405	0.711003	0.338146
1147	C	0.936782	0.693302	0.337873
1148	C	0.971907	0.711423	0.339216
1149	O	0.885479	0.693965	0.339105
1150	H	0.983074	0.697396	0.339142
1151	H	0.63899	0.82172	0.037869
1152	H	0.879357	0.690512	0.037893
1153	H	0.535557	0.723762	0.005508
1154	H	0.982801	0.788412	0.005549
1155	C	0.750046	0.765045	0.339337
1156	C	0.714444	0.748678	0.338862
1157	C	0.696321	0.765686	0.337779
1158	C	0.71402	0.800762	0.338214
1159	C	0.749115	0.818667	0.004877
1160	C	0.766244	0.800638	0.005741
1161	H	0.700418	0.723484	0.338453
1162	O	0.696976	0.817638	0.339179
1163	C	0.768165	0.74709	0.339354
1164	C	0.751967	0.711497	0.0057
1165	C	0.769101	0.693471	0.004928
1166	C	0.804195	0.711378	0.338362
1167	C	0.821889	0.746452	0.337903
1168	C	0.803766	0.76346	0.338956
1169	O	0.821233	0.694494	0.339388
1170	H	0.817795	0.788656	0.338629
1171	H	0.693547	0.820324	0.037971
1172	H	0.824699	0.691873	0.038191
1173	H	0.791429	0.814769	0.005815
1174	H	0.726782	0.697364	0.005663
1175	C	0.750145	0.988061	0.339526
1176	C	0.766496	0.968813	0.338943
1177	C	0.749473	0.933682	0.337772
1178	C	0.714398	0.916326	0.338129
1179	C	0.69651	0.933533	0.004935
1180	C	0.714553	0.968686	0.00598
1181	H	0.791689	0.979967	0.338484
1182	O	0.697505	0.882402	0.339064
1183	C	0.768104	0.524133	0.339503
1184	C	0.803694	0.543506	0.005933
1185	C	0.82174	0.57866	0.00482
1186	C	0.803855	0.595869	0.33792
1187	C	0.76878	0.578516	0.337617
1188	C	0.751753	0.543387	0.338922
1189	O	0.820752	0.629795	0.338777
1190	H	0.72656	0.53223	0.338497
1191	H	0.694826	0.876274	0.037852
1192	H	0.823465	0.635961	0.037551
1193	H	0.700434	0.979754	0.006198
1194	H	0.817813	0.532441	0.006198
1195	C	0.615053	0.745632	0.043449
1196	C	0.600495	0.74958	0.003285
1197	C	0.618255	0.752827	0.296321
1198	N	0.648022	0.754064	0.297332
1199	C	0.66129	0.749162	0.002046
1200	N	0.64487	0.746646	0.041129
1201	H	0.611511	0.759241	0.266783
1202	C	0.60226	0.744628	0.089508
1203	H	0.578093	0.74314	0.089437
1204	H	0.619768	0.766891	0.108002
1205	H	0.59957	0.722846	0.107265
1206	C	0.769654	0.872567	0.043573
1207	C	0.765679	0.853919	0.003598
1208	C	0.762251	0.868257	0.296549
1209	N	0.761003	0.896784	0.297393
1210	C	0.765947	0.915146	0.001935
1211	N	0.768555	0.901321	0.041067
1212	H	0.755877	0.8551	0.267002
1213	C	0.770548	0.860821	0.089692
1214	H	0.771999	0.838122	0.089721
1215	H	0.748257	0.856111	0.108074
1216	H	0.792307	0.879916	0.107486
1217	C	0.642643	0.900411	0.043777
1218	C	0.661257	0.91486	0.003703
1219	C	0.646866	0.896956	0.296756
1220	N	0.618396	0.867136	0.297887
1221	C	0.600061	0.853905	0.002539
1222	N	0.613885	0.870555	0.041492
1223	H	0.660071	0.903475	0.267255
1224	C	0.654393	0.91335	0.089784
1225	H	0.677091	0.9375	0.08962
1226	H	0.659105	0.895887	0.108474
1227	H	0.635296	0.916122	0.107389
1228	C	0.903447	0.766682	0.043514
1229	C	0.917876	0.762618	0.003318
1230	C	0.899984	0.759261	0.296465
1231	N	0.870204	0.757989	0.297695
1232	C	0.856898	0.762945	0.002394
1233	N	0.873598	0.765604	0.041274
1234	H	0.906614	0.752762	0.266904
1235	C	0.916357	0.767807	0.08953
1236	H	0.940536	0.769323	0.089378
1237	H	0.898909	0.74558	0.108139
1238	H	0.919063	0.789622	0.107219
1239	C	0.748571	0.639601	0.043522
1240	C	0.75256	0.658216	0.003511
1241	C	0.755963	0.643933	0.296419
1242	N	0.757236	0.61542	0.297264
1243	C	0.752303	0.597051	0.001803
1244	N	0.749675	0.610849	0.040956
1245	H	0.762348	0.65712	0.266899
1246	C	0.747622	0.651304	0.089646
1247	H	0.746153	0.673996	0.089687
1248	H	0.769897	0.656015	0.108065
1249	H	0.725849	0.632187	0.107393
1250	C	0.875592	0.611788	0.043665
1251	C	0.856982	0.597322	0.003568
1252	C	0.871487	0.615269	0.296682
1253	N	0.899981	0.645064	0.297842
1254	C	0.918277	0.658273	0.002525
1255	N	0.904378	0.641623	0.041445
1256	H	0.858324	0.608772	0.267148
1257	C	0.863804	0.598862	0.08967
1258	H	0.841099	0.574722	0.089505
1259	H	0.859096	0.61634	0.108327
1260	H	0.88288	0.59608	0.107316
1261	C	0.527211	0.765144	0.672838
1262	C	0.54644	0.800747	0.672561
1263	C	0.581565	0.818875	0.671208
1264	C	0.598946	0.801179	0.671471
1265	C	0.581763	0.766088	0.338143
1266	C	0.546607	0.748949	0.339
1267	H	0.535272	0.814774	0.672531
1268	O	0.632868	0.81822	0.672416
1269	C	0.99114	0.747026	0.672841
1270	C	0.97175	0.763226	0.339027
1271	C	0.936594	0.746094	0.338156
1272	C	0.919405	0.711003	0.671481
1273	C	0.936782	0.693302	0.671205
1274	C	0.971907	0.711423	0.672548
1275	O	0.885479	0.693965	0.672436
1276	H	0.983074	0.697396	0.672477
1277	H	0.63899	0.82172	0.371205
1278	H	0.879357	0.690512	0.371228
1279	H	0.535557	0.723762	0.338838
1280	H	0.982801	0.788412	0.338882
1281	C	0.750046	0.765045	0.672672
1282	C	0.714444	0.748678	0.672197
1283	C	0.696321	0.765686	0.671114
1284	C	0.71402	0.800762	0.671549
1285	C	0.749115	0.818667	0.33821
1286	C	0.766244	0.800638	0.339074
1287	H	0.700418	0.723484	0.671788
1288	O	0.696976	0.817638	0.67251
1289	C	0.768165	0.74709	0.672686
1290	C	0.751967	0.711497	0.339034
1291	C	0.769101	0.693471	0.338261
1292	C	0.804195	0.711378	0.671697
1293	C	0.821889	0.746452	0.671235
1294	C	0.803766	0.76346	0.672288
1295	O	0.821233	0.694494	0.672723
1296	H	0.817795	0.788656	0.671964
1297	H	0.693547	0.820324	0.371306
1298	H	0.824699	0.691873	0.371525
1299	H	0.791429	0.814769	0.339148
1300	H	0.726782	0.697364	0.338997
1301	C	0.750145	0.988061	0.672861
1302	C	0.766496	0.968813	0.672278
1303	C	0.749473	0.933682	0.671107
1304	C	0.714398	0.916326	0.671461
1305	C	0.69651	0.933533	0.338268
1306	C	0.714553	0.968686	0.339314
1307	H	0.791689	0.979967	0.671819
1308	O	0.697505	0.882402	0.672399
1309	C	0.768104	0.524133	0.672838
1310	C	0.803694	0.543506	0.339266
1311	C	0.82174	0.57866	0.338153
1312	C	0.803855	0.595869	0.671252
1313	C	0.76878	0.578516	0.670952
1314	C	0.751753	0.543387	0.672254
1315	O	0.820752	0.629795	0.672109
1316	H	0.72656	0.53223	0.671832
1317	H	0.694826	0.876274	0.371188
1318	H	0.823465	0.635961	0.370884
1319	H	0.700434	0.979754	0.339533
1320	H	0.817813	0.532441	0.339533
1321	C	0.615053	0.745632	0.376782
1322	C	0.600495	0.74958	0.336616
1323	C	0.618255	0.752827	0.629654
1324	N	0.648022	0.754064	0.630666
1325	C	0.66129	0.749162	0.33538
1326	N	0.64487	0.746646	0.374464
1327	H	0.611511	0.759241	0.600118
1328	C	0.60226	0.744628	0.422843
1329	H	0.578093	0.74314	0.422769
1330	H	0.619768	0.766891	0.441336
1331	H	0.59957	0.722846	0.4406
1332	C	0.769654	0.872567	0.376907
1333	C	0.765679	0.853919	0.33693
1334	C	0.762251	0.868257	0.629884
1335	N	0.761003	0.896784	0.630727
1336	C	0.765947	0.915146	0.335266
1337	N	0.768555	0.901321	0.3744
1338	H	0.755877	0.8551	0.600338
1339	C	0.770548	0.860821	0.423025
1340	H	0.771999	0.838122	0.423056
1341	H	0.748257	0.856111	0.441407
1342	H	0.792307	0.879916	0.44082
1343	C	0.642643	0.900411	0.377112
1344	C	0.661257	0.91486	0.337036
1345	C	0.646866	0.896956	0.630089
1346	N	0.618396	0.867136	0.63122
1347	C	0.600061	0.853905	0.335871
1348	N	0.613885	0.870555	0.374825
1349	H	0.660071	0.903475	0.600591
1350	C	0.654393	0.91335	0.423116
1351	H	0.677091	0.9375	0.422955
1352	H	0.659105	0.895887	0.441808
1353	H	0.635296	0.916122	0.440722
1354	C	0.903447	0.766682	0.376849
1355	C	0.917876	0.762618	0.33665
1356	C	0.899984	0.759261	0.629799
1357	N	0.870204	0.757989	0.631027
1358	C	0.856898	0.762945	0.335726
1359	N	0.873598	0.765604	0.374609
1360	H	0.906614	0.752762	0.600237
1361	C	0.916357	0.767807	0.422863
1362	H	0.940536	0.769323	0.422712
1363	H	0.898909	0.74558	0.441471
1364	H	0.919063	0.789622	0.440553
1365	C	0.748571	0.639601	0.376856
1366	C	0.75256	0.658216	0.336842
1367	C	0.755963	0.643933	0.629752
1368	N	0.757236	0.61542	0.630599
1369	C	0.752303	0.597051	0.335134
1370	N	0.749675	0.610849	0.374288
1371	H	0.762348	0.65712	0.600233
1372	C	0.747622	0.651304	0.422982
1373	H	0.746153	0.673996	0.423022
1374	H	0.769897	0.656015	0.4414
1375	H	0.725849	0.632187	0.440725
1376	C	0.875592	0.611788	0.376998
1377	C	0.856982	0.597322	0.3369
1378	C	0.871487	0.615269	0.630015
1379	N	0.899981	0.645064	0.631176
1380	C	0.918277	0.658273	0.335856
1381	N	0.904378	0.641623	0.374778
1382	H	0.858324	0.608772	0.600483
1383	C	0.863804	0.598862	0.423005
1384	H	0.841099	0.574722	0.42284
1385	H	0.859096	0.61634	0.44166
1386	H	0.88288	0.59608	0.440651
1387	C	0.527211	0.765144	0.006171
1388	C	0.54644	0.800747	0.005896
1389	C	0.581565	0.818875	0.00454
1390	C	0.598946	0.801179	0.004806
1391	C	0.581763	0.766088	0.671478
1392	C	0.546607	0.748949	0.672335
1393	H	0.535272	0.814774	0.005866
1394	O	0.632868	0.81822	0.005748
1395	C	0.99114	0.747026	0.006174
1396	C	0.97175	0.763226	0.672362
1397	C	0.936594	0.746094	0.671491
1398	C	0.919405	0.711003	0.004816
1399	C	0.936782	0.693302	0.00454
1400	C	0.971907	0.711423	0.005883
1401	O	0.885479	0.693965	0.005771
1402	H	0.983074	0.697396	0.005812
1403	H	0.63899	0.82172	0.704536
1404	H	0.879357	0.690512	0.70456
1405	H	0.535557	0.723762	0.672173
1406	H	0.982801	0.788412	0.672217
1407	C	0.750046	0.765045	0.006007
1408	C	0.714444	0.748678	0.005528
1409	C	0.696321	0.765686	0.004449
1410	C	0.71402	0.800762	0.004884
1411	C	0.749115	0.818667	0.671542
1412	C	0.766244	0.800638	0.672409
1413	H	0.700418	0.723484	0.005123
1414	O	0.696976	0.817638	0.005845
1415	C	0.768165	0.74709	0.006021
1416	C	0.751967	0.711497	0.672369
1417	C	0.769101	0.693471	0.671593
1418	C	0.804195	0.711378	0.005029
1419	C	0.821889	0.746452	0.00457
1420	C	0.803766	0.76346	0.005623
1421	O	0.821233	0.694494	0.006058
1422	H	0.817795	0.788656	0.005296
1423	H	0.693547	0.820324	0.704637
1424	H	0.824699	0.691873	0.70486
1425	H	0.791429	0.814769	0.672483
1426	H	0.726782	0.697364	0.672328
1427	C	0.750145	0.988061	0.006192
1428	C	0.766496	0.968813	0.005613
1429	C	0.749473	0.933682	0.004442
1430	C	0.714398	0.916326	0.004796
1431	C	0.69651	0.933533	0.671603
1432	C	0.714553	0.968686	0.672645
1433	H	0.791689	0.979967	0.005154
1434	O	0.697505	0.882402	0.005731
1435	C	0.768104	0.524133	0.00617
1436	C	0.803694	0.543506	0.672598
1437	C	0.82174	0.57866	0.671488
1438	C	0.803855	0.595869	0.004587
1439	C	0.76878	0.578516	0.004283
1440	C	0.751753	0.543387	0.005589
1441	O	0.820752	0.629795	0.005444
1442	H	0.72656	0.53223	0.005164
1443	H	0.694826	0.876274	0.704519
1444	H	0.823465	0.635961	0.704219
1445	H	0.700434	0.979754	0.672865
1446	H	0.817813	0.532441	0.672865
1447	C	0.615053	0.745632	0.710117
1448	C	0.600495	0.74958	0.66995
1449	C	0.618255	0.752827	0.962989
1450	N	0.648022	0.754064	0.963998
1451	C	0.66129	0.749162	0.668715
1452	N	0.64487	0.746646	0.707795
1453	H	0.611511	0.759241	0.93345
1454	C	0.60226	0.744628	0.756175
1455	H	0.578093	0.74314	0.756104
1456	H	0.619768	0.766891	0.774671
1457	H	0.59957	0.722846	0.773932
1458	C	0.769654	0.872567	0.710242
1459	C	0.765679	0.853919	0.670263
1460	C	0.762251	0.868257	0.963215
1461	N	0.761003	0.896784	0.964062
1462	C	0.765947	0.915146	0.6686
1463	N	0.768555	0.901321	0.707735
1464	H	0.755877	0.8551	0.933669
1465	C	0.770548	0.860821	0.75636
1466	H	0.771999	0.838122	0.756387
1467	H	0.748257	0.856111	0.774742
1468	H	0.792307	0.879916	0.774155
1469	C	0.642643	0.900411	0.710444
1470	C	0.661257	0.91486	0.670371
1471	C	0.646866	0.896956	0.963425
1472	N	0.618396	0.867136	0.964555
1473	C	0.600061	0.853905	0.669204
1474	N	0.613885	0.870555	0.70816
1475	H	0.660071	0.903475	0.933922
1476	C	0.654393	0.91335	0.756452
1477	H	0.677091	0.9375	0.75629
1478	H	0.659105	0.895887	0.77514
1479	H	0.635296	0.916122	0.774057
1480	C	0.903447	0.766682	0.710181
1481	C	0.917876	0.762618	0.669983
1482	C	0.899984	0.759261	0.963134
1483	N	0.870204	0.757989	0.964362
1484	C	0.856898	0.762945	0.669059
1485	N	0.873598	0.765604	0.707941
1486	H	0.906614	0.752762	0.933572
1487	C	0.916357	0.767807	0.756198
1488	H	0.940536	0.769323	0.756047
1489	H	0.898909	0.74558	0.774806
1490	H	0.919063	0.789622	0.773888
1491	C	0.748571	0.639601	0.710191
1492	C	0.75256	0.658216	0.670176
1493	C	0.755963	0.643933	0.963087
1494	N	0.757236	0.61542	0.963931
1495	C	0.752303	0.597051	0.668468
1496	N	0.749675	0.610849	0.707623
1497	H	0.762348	0.65712	0.933568
1498	C	0.747622	0.651304	0.756313
1499	H	0.746153	0.673996	0.756354
1500	H	0.769897	0.656015	0.774732
1501	H	0.725849	0.632187	0.77406
1502	C	0.875592	0.611788	0.710333
1503	C	0.856982	0.597322	0.670233
1504	C	0.871487	0.615269	0.96335
1505	N	0.899981	0.645064	0.964511
1506	C	0.918277	0.658273	0.66919
1507	N	0.904378	0.641623	0.708113
1508	H	0.858324	0.608772	0.933818
1509	C	0.863804	0.598862	0.756337
1510	H	0.841099	0.574722	0.756171
1511	H	0.859096	0.61634	0.774995
1512	H	0.88288	0.59608	0.773983
