data_C432H360N144O144_2018-02-15_10:34:03
#******************************************
#
# CIF file created by Zeo++
# Zeo++ is an open source package to
# analyze microporous materials
#
#*******************************************

_cell_length_a		43.767   
_cell_length_b		43.767   
_cell_length_c		30.0462   
_cell_angle_alpha		90   
_cell_angle_beta		90   
_cell_angle_gamma		120   

_symmetry_space_group_name_H-M		'P1'
_symmetry_Int_Tables_number		1
_symmetry_cell_setting		Monoclinic

loop_
_symmetry_equiv_pos_as_xyz
'+x,+y,+z'

loop_
_atom_site_label
_atom_site_type_symbol
_atom_site_fract_x
_atom_site_fract_y
_atom_site_fract_z
1	C	0.184703	0.314421	0.952751
2	C	0.147439	0.295473	0.952624
3	C	0.128154	0.313347	0.952754
4	C	0.14647	0.350611	0.952631
5	C	0.183629	0.369897	0.952761
6	C	0.202576	0.351579	0.952618
7	H	0.132606	0.363736	0.952871
8	H	0.229566	0.365443	0.952871
9	H	0.134313	0.268483	0.952864
10	N	0.20493	0.297412	0.953463
11	H	0.195911	0.27849	0.928974
12	N	0.200637	0.407131	0.953473
13	H	0.219551	0.417032	0.928974
14	N	0.090918	0.293122	0.953466
15	H	0.081016	0.302135	0.928967
16	C	0.323858	0.193274	0.050167
17	C	0.359354	0.201331	0.050403
18	C	0.367846	0.174215	0.05017
19	C	0.340408	0.138718	0.050356
20	C	0.304795	0.13022	0.050124
21	C	0.296742	0.157664	0.050376
22	H	0.346423	0.118934	0.05068
23	H	0.270944	0.151654	0.0507
24	H	0.379139	0.22713	0.050753
25	N	0.314345	0.219699	0.051317
26	H	0.332509	0.241825	0.068187
27	N	0.278359	0.094278	0.051229
28	H	0.256151	0.090328	0.067877
29	N	0.403784	0.183728	0.051325
30	H	0.407747	0.16558	0.068235
31	C	0.280417	0.243572	0.342862
32	C	0.277041	0.25874	0.303041
33	C	0.253401	0.271359	0.299425
34	C	0.231393	0.268876	0.001965
35	C	0.234401	0.253664	0.042621
36	H	0.252513	0.282224	0.269714
37	H	0.291915	0.260657	0.275726
38	C	0.258579	0.240869	0.046259
39	N	0.214074	0.250182	0.081098
40	N	0.260771	0.224551	0.085966
41	O	0.220277	0.279179	0.097285
42	O	0.271112	0.245119	0.118785
43	O	0.181525	0.230032	0.075861
44	O	0.232578	0.196771	0.09528
45	C	0.205729	0.281867	0.997219
46	H	0.212364	0.302137	0.022585
47	H	0.179226	0.259959	0.004106
48	C	0.305171	0.229284	0.341285
49	H	0.329947	0.248674	0.325495
50	H	0.292833	0.206175	0.319455
51	C	0.254506	0.036469	0.342829
52	C	0.239325	0.017914	0.303021
53	C	0.226679	0.481649	0.299427
54	C	0.229189	0.462134	0.001957
55	C	0.244448	0.480373	0.042591
56	H	0.215807	0.469891	0.269714
57	H	0.237417	0.03087	0.275689
58	C	0.257269	0.017351	0.046203
59	N	0.247967	0.463543	0.081058
60	N	0.273654	0.035891	0.08587
61	O	0.218985	0.440753	0.097283
62	O	0.253132	0.025692	0.118736
63	O	0.268112	0.451143	0.075786
64	O	0.301436	0.035463	0.09512
65	C	0.216198	0.42348	0.997219
66	H	0.195939	0.409851	0.0226
67	H	0.238106	0.418884	0.004089
68	C	0.268964	0.075534	0.341182
69	H	0.249734	0.081038	0.325134
70	H	0.292179	0.086211	0.319565
71	C	0.461589	0.217642	0.342869
72	C	0.480133	0.22101	0.303052
73	C	0.016392	0.244652	0.299433
74	C	0.035919	0.266671	0.001963
75	C	0.017697	0.263671	0.042617
76	H	0.028146	0.245534	0.26972
77	H	0.467178	0.206126	0.27574
78	C	0.480725	0.23949	0.046259
79	N	0.034543	0.284012	0.081085
80	N	0.462215	0.237305	0.085965
81	O	0.057338	0.277818	0.097282
82	O	0.472451	0.226977	0.11879
83	O	0.046937	0.316558	0.075831
84	O	0.462626	0.265499	0.095265
85	C	0.074571	0.292333	0.997216
86	H	0.088207	0.285706	0.02259
87	H	0.079166	0.318838	0.004087
88	C	0.422548	0.192879	0.341295
89	H	0.417171	0.168091	0.325541
90	H	0.411772	0.205192	0.319441
91	C	0.184703	0.314421	0.286085
92	C	0.147439	0.295473	0.285959
93	C	0.128154	0.313347	0.286089
94	C	0.14647	0.350611	0.285964
95	C	0.183629	0.369897	0.286094
96	C	0.202576	0.351579	0.28595
97	H	0.132606	0.363736	0.286203
98	H	0.229566	0.365443	0.286205
99	H	0.134313	0.268483	0.286197
100	N	0.20493	0.297412	0.286798
101	H	0.195911	0.27849	0.262309
102	N	0.200637	0.407131	0.286806
103	H	0.219551	0.417032	0.262307
104	N	0.090918	0.293122	0.286799
105	H	0.081016	0.302135	0.262301
106	C	0.323858	0.193274	0.3835
107	C	0.359354	0.201331	0.383736
108	C	0.367846	0.174215	0.383503
109	C	0.340408	0.138718	0.38369
110	C	0.304795	0.13022	0.383457
111	C	0.296742	0.157664	0.38371
112	H	0.346423	0.118934	0.384012
113	H	0.270944	0.151654	0.384032
114	H	0.379139	0.22713	0.384086
115	N	0.314345	0.219699	0.384648
116	H	0.332509	0.241825	0.401519
117	N	0.278359	0.094278	0.384562
118	H	0.256151	0.090328	0.401209
119	N	0.403784	0.183728	0.384658
120	H	0.407747	0.16558	0.401569
121	C	0.280417	0.243572	0.676196
122	C	0.277041	0.25874	0.636374
123	C	0.253401	0.271359	0.63276
124	C	0.231393	0.268876	0.335297
125	C	0.234401	0.253664	0.375955
126	H	0.252513	0.282224	0.603049
127	H	0.291915	0.260657	0.60906
128	C	0.258579	0.240869	0.379593
129	N	0.214074	0.250182	0.414429
130	N	0.260771	0.224551	0.419298
131	O	0.220277	0.279179	0.430617
132	O	0.271112	0.245119	0.452118
133	O	0.181525	0.230032	0.409194
134	O	0.232578	0.196771	0.428614
135	C	0.205729	0.281867	0.330554
136	H	0.212364	0.302137	0.355919
137	H	0.179226	0.259959	0.337437
138	C	0.305171	0.229284	0.674615
139	H	0.329947	0.248674	0.658826
140	H	0.292833	0.206175	0.652789
141	C	0.254506	0.036469	0.676163
142	C	0.239325	0.017914	0.636354
143	C	0.226679	0.481649	0.63276
144	C	0.229189	0.462134	0.335291
145	C	0.244448	0.480373	0.375925
146	H	0.215807	0.469891	0.603045
147	H	0.237417	0.03087	0.609023
148	C	0.257269	0.017351	0.379536
149	N	0.247967	0.463543	0.414392
150	N	0.273654	0.035891	0.419202
151	O	0.218985	0.440753	0.430614
152	O	0.253132	0.025692	0.452068
153	O	0.268112	0.451143	0.409117
154	O	0.301436	0.035463	0.428454
155	C	0.216198	0.42348	0.330555
156	H	0.195939	0.409851	0.355932
157	H	0.238106	0.418884	0.337421
158	C	0.268964	0.075534	0.674515
159	H	0.249734	0.081038	0.658467
160	H	0.292179	0.086211	0.652899
161	C	0.461589	0.217642	0.676203
162	C	0.480133	0.22101	0.636384
163	C	0.016392	0.244652	0.632766
164	C	0.035919	0.266671	0.335297
165	C	0.017697	0.263671	0.375952
166	H	0.028146	0.245534	0.603052
167	H	0.467178	0.206126	0.609073
168	C	0.480725	0.23949	0.379593
169	N	0.034543	0.284012	0.414419
170	N	0.462215	0.237305	0.419298
171	O	0.057338	0.277818	0.430614
172	O	0.472451	0.226977	0.452124
173	O	0.046937	0.316558	0.409164
174	O	0.462626	0.265499	0.428597
175	C	0.074571	0.292333	0.330549
176	H	0.088207	0.285706	0.355922
177	H	0.079166	0.318838	0.337421
178	C	0.422548	0.192879	0.674629
179	H	0.417171	0.168091	0.658873
180	H	0.411772	0.205192	0.652776
181	C	0.184703	0.314421	0.619417
182	C	0.147439	0.295473	0.619294
183	C	0.128154	0.313347	0.619424
184	C	0.14647	0.350611	0.619297
185	C	0.183629	0.369897	0.619427
186	C	0.202576	0.351579	0.619284
187	H	0.132606	0.363736	0.619537
188	H	0.229566	0.365443	0.619537
189	H	0.134313	0.268483	0.61953
190	N	0.20493	0.297412	0.620132
191	H	0.195911	0.27849	0.595644
192	N	0.200637	0.407131	0.620139
193	H	0.219551	0.417032	0.59564
194	N	0.090918	0.293122	0.620132
195	H	0.081016	0.302135	0.595634
196	C	0.323858	0.193274	0.716834
197	C	0.359354	0.201331	0.71707
198	C	0.367846	0.174215	0.716837
199	C	0.340408	0.138718	0.717023
200	C	0.304795	0.13022	0.71679
201	C	0.296742	0.157664	0.717043
202	H	0.346423	0.118934	0.717346
203	H	0.270944	0.151654	0.717366
204	H	0.379139	0.22713	0.717419
205	N	0.314345	0.219699	0.717982
206	H	0.332509	0.241825	0.734853
207	N	0.278359	0.094278	0.717895
208	H	0.256151	0.090328	0.734543
209	N	0.403784	0.183728	0.717992
210	H	0.407747	0.16558	0.734899
211	C	0.280417	0.243572	0.009529
212	C	0.277041	0.25874	0.969708
213	C	0.253401	0.271359	0.96609
214	C	0.231393	0.268876	0.668631
215	C	0.234401	0.253664	0.709289
216	H	0.252513	0.282224	0.936379
217	H	0.291915	0.260657	0.942393
218	C	0.258579	0.240869	0.712923
219	N	0.214074	0.250182	0.747763
220	N	0.260771	0.224551	0.752632
221	O	0.220277	0.279179	0.763951
222	O	0.271112	0.245119	0.785451
223	O	0.181525	0.230032	0.742527
224	O	0.232578	0.196771	0.761944
225	C	0.205729	0.281867	0.663888
226	H	0.212364	0.302137	0.689249
227	H	0.179226	0.259959	0.670771
228	C	0.305171	0.229284	0.007951
229	H	0.329947	0.248674	0.99216
230	H	0.292833	0.206175	0.986119
231	C	0.254506	0.036469	0.009497
232	C	0.239325	0.017914	0.969688
233	C	0.226679	0.481649	0.966094
234	C	0.229189	0.462134	0.668625
235	C	0.244448	0.480373	0.709255
236	H	0.215807	0.469891	0.936379
237	H	0.237417	0.03087	0.942353
238	C	0.257269	0.017351	0.71287
239	N	0.247967	0.463543	0.747723
240	N	0.273654	0.035891	0.752535
241	O	0.218985	0.440753	0.763948
242	O	0.253132	0.025692	0.785402
243	O	0.268112	0.451143	0.742451
244	O	0.301436	0.035463	0.761785
245	C	0.216198	0.42348	0.663888
246	H	0.195939	0.409851	0.689266
247	H	0.238106	0.418884	0.670755
248	C	0.268964	0.075534	0.00785
249	H	0.249734	0.081038	0.991801
250	H	0.292179	0.086211	0.986229
251	C	0.461589	0.217642	0.009537
252	C	0.480133	0.22101	0.969718
253	C	0.016392	0.244652	0.966097
254	C	0.035919	0.266671	0.668628
255	C	0.017697	0.263671	0.709282
256	H	0.028146	0.245534	0.936386
257	H	0.467178	0.206126	0.942407
258	C	0.480725	0.23949	0.712926
259	N	0.034543	0.284012	0.747749
260	N	0.462215	0.237305	0.752632
261	O	0.057338	0.277818	0.763948
262	O	0.472451	0.226977	0.785455
263	O	0.046937	0.316558	0.742498
264	O	0.462626	0.265499	0.761931
265	C	0.074571	0.292333	0.663882
266	H	0.088207	0.285706	0.689256
267	H	0.079166	0.318838	0.670751
268	C	0.422548	0.192879	0.007963
269	H	0.417171	0.168091	0.992207
270	H	0.411772	0.205192	0.986106
271	C	0.184704	0.814423	0.952751
272	C	0.147439	0.795474	0.952624
273	C	0.128153	0.813346	0.952754
274	C	0.146469	0.85061	0.952631
275	C	0.183628	0.869895	0.952761
276	C	0.202577	0.85158	0.952618
277	H	0.132607	0.863738	0.952871
278	H	0.229567	0.865445	0.952871
279	H	0.134314	0.768485	0.952864
280	N	0.20493	0.797411	0.953463
281	H	0.195911	0.778489	0.928974
282	N	0.200638	0.907132	0.953473
283	H	0.219551	0.917034	0.928974
284	N	0.090917	0.793121	0.953466
285	H	0.081016	0.802136	0.928967
286	C	0.323859	0.693275	0.050167
287	C	0.359355	0.701332	0.050403
288	C	0.367848	0.674216	0.05017
289	C	0.340407	0.638718	0.050356
290	C	0.304794	0.63022	0.050124
291	C	0.296742	0.657663	0.050376
292	H	0.346423	0.618933	0.05068
293	H	0.270944	0.651653	0.0507
294	H	0.37914	0.727129	0.050753
295	N	0.314346	0.7197	0.051317
296	H	0.33251	0.741825	0.068187
297	N	0.27836	0.594278	0.051229
298	H	0.256152	0.590329	0.067877
299	N	0.403786	0.68373	0.051325
300	H	0.407748	0.665581	0.068235
301	C	0.280417	0.743571	0.342862
302	C	0.277043	0.758742	0.303041
303	C	0.253402	0.77136	0.299426
304	C	0.231393	0.768878	0.001965
305	C	0.234402	0.753665	0.042621
306	H	0.252514	0.782225	0.269714
307	H	0.291915	0.760657	0.275726
308	C	0.258579	0.74087	0.046259
309	N	0.214074	0.750183	0.081098
310	N	0.260772	0.724552	0.085966
311	O	0.220277	0.779178	0.097285
312	O	0.271112	0.74512	0.118785
313	O	0.181525	0.730032	0.075861
314	O	0.232578	0.696771	0.09528
315	C	0.205728	0.781866	0.997219
316	H	0.212363	0.802136	0.022585
317	H	0.179227	0.75996	0.004106
318	C	0.305172	0.729285	0.341285
319	H	0.329947	0.748674	0.325495
320	H	0.292834	0.706176	0.319455
321	C	0.254508	0.536471	0.342829
322	C	0.239325	0.517915	0.303021
323	C	0.226679	0.981651	0.299427
324	C	0.229191	0.962135	0.001957
325	C	0.244449	0.980374	0.042591
326	H	0.215806	0.969889	0.269714
327	H	0.237417	0.530869	0.275689
328	C	0.257269	0.517351	0.046203
329	N	0.247967	0.963542	0.081058
330	N	0.273653	0.53589	0.08587
331	O	0.218987	0.940755	0.097283
332	O	0.253133	0.525693	0.118736
333	O	0.268112	0.951142	0.075786
334	O	0.301436	0.535463	0.09512
335	C	0.2162	0.923482	0.997219
336	H	0.195938	0.90985	0.0226
337	H	0.238107	0.918886	0.004089
338	C	0.268963	0.575533	0.341182
339	H	0.249735	0.581039	0.325134
340	H	0.29218	0.58621	0.319565
341	C	0.46159	0.717642	0.342869
342	C	0.480135	0.721011	0.303052
343	C	0.016394	0.744653	0.299433
344	C	0.035918	0.76667	0.001963
345	C	0.017697	0.763672	0.042617
346	H	0.028147	0.745534	0.26972
347	H	0.467177	0.706126	0.27574
348	C	0.480725	0.73949	0.046259
349	N	0.034543	0.784014	0.081085
350	N	0.462216	0.737305	0.085965
351	O	0.057338	0.777819	0.097282
352	O	0.472449	0.726976	0.11879
353	O	0.046937	0.81656	0.075831
354	O	0.462625	0.765498	0.095265
355	C	0.074571	0.792335	0.997216
356	H	0.088206	0.785707	0.02259
357	H	0.079165	0.818837	0.004087
358	C	0.422549	0.692879	0.341295
359	H	0.417172	0.668092	0.325541
360	H	0.411772	0.705192	0.319441
361	C	0.184704	0.814423	0.286085
362	C	0.147439	0.795474	0.285959
363	C	0.128153	0.813346	0.286089
364	C	0.146469	0.85061	0.285964
365	C	0.183628	0.869895	0.286094
366	C	0.202577	0.85158	0.28595
367	H	0.132607	0.863738	0.286203
368	H	0.229567	0.865445	0.286205
369	H	0.134314	0.768485	0.286197
370	N	0.20493	0.797411	0.286798
371	H	0.195911	0.778489	0.262309
372	N	0.200638	0.907132	0.286806
373	H	0.219551	0.917034	0.262307
374	N	0.090917	0.793121	0.286799
375	H	0.081016	0.802136	0.262301
376	C	0.323859	0.693275	0.3835
377	C	0.359355	0.701332	0.383736
378	C	0.367848	0.674216	0.383503
379	C	0.340407	0.638718	0.38369
380	C	0.304794	0.63022	0.383457
381	C	0.296742	0.657663	0.38371
382	H	0.346423	0.618933	0.384012
383	H	0.270944	0.651653	0.384032
384	H	0.37914	0.727129	0.384086
385	N	0.314346	0.7197	0.384648
386	H	0.33251	0.741825	0.401519
387	N	0.27836	0.594278	0.384562
388	H	0.256152	0.590329	0.401209
389	N	0.403786	0.68373	0.384658
390	H	0.407748	0.665581	0.401569
391	C	0.280417	0.743571	0.676196
392	C	0.277043	0.758742	0.636374
393	C	0.253402	0.77136	0.63276
394	C	0.231393	0.768878	0.335297
395	C	0.234402	0.753665	0.375955
396	H	0.252514	0.782225	0.603049
397	H	0.291915	0.760657	0.60906
398	C	0.258579	0.74087	0.379593
399	N	0.214074	0.750183	0.414429
400	N	0.260772	0.724552	0.419298
401	O	0.220277	0.779178	0.430617
402	O	0.271112	0.74512	0.452118
403	O	0.181525	0.730032	0.409194
404	O	0.232578	0.696771	0.428614
405	C	0.205728	0.781866	0.330554
406	H	0.212363	0.802136	0.355919
407	H	0.179227	0.75996	0.337437
408	C	0.305172	0.729285	0.674615
409	H	0.329947	0.748674	0.658826
410	H	0.292834	0.706176	0.652789
411	C	0.254508	0.536471	0.676163
412	C	0.239325	0.517915	0.636354
413	C	0.226679	0.981651	0.63276
414	C	0.229191	0.962135	0.335291
415	C	0.244449	0.980374	0.375925
416	H	0.215806	0.969889	0.603045
417	H	0.237417	0.530869	0.609023
418	C	0.257269	0.517351	0.379536
419	N	0.247967	0.963542	0.414392
420	N	0.273653	0.53589	0.419202
421	O	0.218987	0.940755	0.430614
422	O	0.253133	0.525693	0.452068
423	O	0.268112	0.951142	0.409117
424	O	0.301436	0.535463	0.428454
425	C	0.2162	0.923482	0.330555
426	H	0.195938	0.90985	0.355932
427	H	0.238107	0.918886	0.337421
428	C	0.268963	0.575533	0.674515
429	H	0.249735	0.581039	0.658467
430	H	0.29218	0.58621	0.652899
431	C	0.46159	0.717642	0.676203
432	C	0.480135	0.721011	0.636384
433	C	0.016394	0.744653	0.632766
434	C	0.035918	0.76667	0.335297
435	C	0.017697	0.763672	0.375952
436	H	0.028147	0.745534	0.603052
437	H	0.467177	0.706126	0.609073
438	C	0.480725	0.73949	0.379593
439	N	0.034543	0.784014	0.414419
440	N	0.462216	0.737305	0.419298
441	O	0.057338	0.777819	0.430614
442	O	0.472449	0.726976	0.452124
443	O	0.046937	0.81656	0.409164
444	O	0.462625	0.765498	0.428597
445	C	0.074571	0.792335	0.330549
446	H	0.088206	0.785707	0.355922
447	H	0.079165	0.818837	0.337421
448	C	0.422549	0.692879	0.674629
449	H	0.417172	0.668092	0.658873
450	H	0.411772	0.705192	0.652776
451	C	0.184704	0.814423	0.619417
452	C	0.147439	0.795474	0.619294
453	C	0.128153	0.813346	0.619424
454	C	0.146469	0.85061	0.619297
455	C	0.183628	0.869895	0.619427
456	C	0.202577	0.85158	0.619284
457	H	0.132607	0.863738	0.619537
458	H	0.229567	0.865445	0.619537
459	H	0.134314	0.768485	0.61953
460	N	0.20493	0.797411	0.620132
461	H	0.195911	0.778489	0.595644
462	N	0.200638	0.907132	0.620139
463	H	0.219551	0.917034	0.59564
464	N	0.090917	0.793121	0.620132
465	H	0.081016	0.802136	0.595634
466	C	0.323859	0.693275	0.716834
467	C	0.359355	0.701332	0.71707
468	C	0.367848	0.674216	0.716837
469	C	0.340407	0.638718	0.717023
470	C	0.304794	0.63022	0.71679
471	C	0.296742	0.657663	0.717043
472	H	0.346423	0.618933	0.717346
473	H	0.270944	0.651653	0.717366
474	H	0.37914	0.727129	0.717419
475	N	0.314346	0.7197	0.717982
476	H	0.33251	0.741825	0.734853
477	N	0.27836	0.594278	0.717895
478	H	0.256152	0.590329	0.734543
479	N	0.403786	0.68373	0.717992
480	H	0.407748	0.665581	0.734899
481	C	0.280417	0.743571	0.009529
482	C	0.277043	0.758742	0.969708
483	C	0.253402	0.77136	0.96609
484	C	0.231393	0.768878	0.668631
485	C	0.234402	0.753665	0.709289
486	H	0.252514	0.782225	0.936379
487	H	0.291915	0.760657	0.942393
488	C	0.258579	0.74087	0.712923
489	N	0.214074	0.750183	0.747763
490	N	0.260772	0.724552	0.752632
491	O	0.220277	0.779178	0.763951
492	O	0.271112	0.74512	0.785451
493	O	0.181525	0.730032	0.742527
494	O	0.232578	0.696771	0.761944
495	C	0.205728	0.781866	0.663888
496	H	0.212363	0.802136	0.689249
497	H	0.179227	0.75996	0.670771
498	C	0.305172	0.729285	0.007951
499	H	0.329947	0.748674	0.99216
500	H	0.292834	0.706176	0.986119
501	C	0.254508	0.536471	0.009497
502	C	0.239325	0.517915	0.969688
503	C	0.226679	0.981651	0.966094
504	C	0.229191	0.962135	0.668625
505	C	0.244449	0.980374	0.709255
506	H	0.215806	0.969889	0.936379
507	H	0.237417	0.530869	0.942353
508	C	0.257269	0.517351	0.71287
509	N	0.247967	0.963542	0.747723
510	N	0.273653	0.53589	0.752535
511	O	0.218987	0.940755	0.763948
512	O	0.253133	0.525693	0.785402
513	O	0.268112	0.951142	0.742451
514	O	0.301436	0.535463	0.761785
515	C	0.2162	0.923482	0.663888
516	H	0.195938	0.90985	0.689266
517	H	0.238107	0.918886	0.670755
518	C	0.268963	0.575533	0.00785
519	H	0.249735	0.581039	0.991801
520	H	0.29218	0.58621	0.986229
521	C	0.46159	0.717642	0.009537
522	C	0.480135	0.721011	0.969718
523	C	0.016394	0.744653	0.966097
524	C	0.035918	0.76667	0.668628
525	C	0.017697	0.763672	0.709282
526	H	0.028147	0.745534	0.936386
527	H	0.467177	0.706126	0.942407
528	C	0.480725	0.73949	0.712926
529	N	0.034543	0.784014	0.747749
530	N	0.462216	0.737305	0.752632
531	O	0.057338	0.777819	0.763948
532	O	0.472449	0.726976	0.785455
533	O	0.046937	0.81656	0.742498
534	O	0.462625	0.765498	0.761931
535	C	0.074571	0.792335	0.663882
536	H	0.088206	0.785707	0.689256
537	H	0.079165	0.818837	0.670751
538	C	0.422549	0.692879	0.007963
539	H	0.417172	0.668092	0.992207
540	H	0.411772	0.705192	0.986106
541	C	0.684704	0.314421	0.952751
542	C	0.647439	0.295473	0.952624
543	C	0.628155	0.313347	0.952754
544	C	0.646471	0.350611	0.952631
545	C	0.683628	0.369897	0.952761
546	C	0.702575	0.351579	0.952618
547	H	0.632605	0.363736	0.952871
548	H	0.729565	0.365443	0.952871
549	H	0.634312	0.268483	0.952864
550	N	0.704929	0.297412	0.953463
551	H	0.695911	0.27849	0.928974
552	N	0.700636	0.407131	0.953473
553	H	0.71955	0.417032	0.928974
554	N	0.590916	0.293122	0.953466
555	H	0.581015	0.302135	0.928967
556	C	0.823858	0.193274	0.050167
557	C	0.859354	0.201331	0.050403
558	C	0.867846	0.174215	0.05017
559	C	0.840406	0.138718	0.050356
560	C	0.804793	0.13022	0.050124
561	C	0.796743	0.157664	0.050376
562	H	0.846423	0.118934	0.05068
563	H	0.770944	0.151654	0.0507
564	H	0.879139	0.22713	0.050753
565	N	0.814344	0.219699	0.051317
566	H	0.83251	0.241825	0.068187
567	N	0.778359	0.094278	0.051229
568	H	0.756152	0.090328	0.067877
569	N	0.903784	0.183728	0.051325
570	H	0.907747	0.16558	0.068235
571	C	0.780417	0.243572	0.342862
572	C	0.777041	0.25874	0.303041
573	C	0.753401	0.271359	0.299425
574	C	0.731393	0.268876	0.001965
575	C	0.734402	0.253664	0.042621
576	H	0.752513	0.282224	0.269714
577	H	0.791914	0.260657	0.275726
578	C	0.75858	0.240869	0.046259
579	N	0.714074	0.250182	0.081098
580	N	0.760771	0.224551	0.085966
581	O	0.720276	0.279179	0.097285
582	O	0.771112	0.245119	0.118785
583	O	0.681525	0.230032	0.075861
584	O	0.732578	0.196771	0.09528
585	C	0.705729	0.281867	0.997219
586	H	0.712364	0.302137	0.022585
587	H	0.679227	0.259959	0.004106
588	C	0.805171	0.229284	0.341285
589	H	0.829946	0.248674	0.325495
590	H	0.792833	0.206175	0.319455
591	C	0.754506	0.036469	0.342829
592	C	0.739325	0.017914	0.303021
593	C	0.726679	0.481649	0.299427
594	C	0.729189	0.462134	0.001957
595	C	0.744447	0.480373	0.042591
596	H	0.715808	0.469891	0.269714
597	H	0.737417	0.03087	0.275689
598	C	0.757269	0.017351	0.046203
599	N	0.747966	0.463543	0.081058
600	N	0.773654	0.035891	0.08587
601	O	0.718985	0.440753	0.097283
602	O	0.753132	0.025692	0.118736
603	O	0.768113	0.451143	0.075786
604	O	0.801436	0.035463	0.09512
605	C	0.716198	0.42348	0.997219
606	H	0.695939	0.409851	0.0226
607	H	0.738105	0.418884	0.004089
608	C	0.768964	0.075534	0.341182
609	H	0.749734	0.081038	0.325134
610	H	0.792179	0.086211	0.319565
611	C	0.961589	0.217642	0.342869
612	C	0.980133	0.22101	0.303052
613	C	0.516392	0.244652	0.299433
614	C	0.53592	0.266671	0.001963
615	C	0.517697	0.263671	0.042617
616	H	0.528145	0.245534	0.26972
617	H	0.967178	0.206126	0.27574
618	C	0.980725	0.23949	0.046259
619	N	0.534542	0.284012	0.081085
620	N	0.962215	0.237305	0.085965
621	O	0.557338	0.277818	0.097282
622	O	0.972448	0.226977	0.11879
623	O	0.546937	0.316558	0.075831
624	O	0.962626	0.265499	0.095265
625	C	0.574572	0.292333	0.997216
626	H	0.588207	0.285706	0.02259
627	H	0.579167	0.318838	0.004087
628	C	0.922548	0.192879	0.341295
629	H	0.917171	0.168091	0.325541
630	H	0.911772	0.205192	0.319441
631	C	0.684704	0.314421	0.286085
632	C	0.647439	0.295473	0.285959
633	C	0.628155	0.313347	0.286089
634	C	0.646471	0.350611	0.285964
635	C	0.683628	0.369897	0.286094
636	C	0.702575	0.351579	0.28595
637	H	0.632605	0.363736	0.286203
638	H	0.729565	0.365443	0.286205
639	H	0.634312	0.268483	0.286197
640	N	0.704929	0.297412	0.286798
641	H	0.695911	0.27849	0.262309
642	N	0.700636	0.407131	0.286806
643	H	0.71955	0.417032	0.262307
644	N	0.590916	0.293122	0.286799
645	H	0.581015	0.302135	0.262301
646	C	0.823858	0.193274	0.3835
647	C	0.859354	0.201331	0.383736
648	C	0.867846	0.174215	0.383503
649	C	0.840406	0.138718	0.38369
650	C	0.804793	0.13022	0.383457
651	C	0.796743	0.157664	0.38371
652	H	0.846423	0.118934	0.384012
653	H	0.770944	0.151654	0.384032
654	H	0.879139	0.22713	0.384086
655	N	0.814344	0.219699	0.384648
656	H	0.83251	0.241825	0.401519
657	N	0.778359	0.094278	0.384562
658	H	0.756152	0.090328	0.401209
659	N	0.903784	0.183728	0.384658
660	H	0.907747	0.16558	0.401569
661	C	0.780417	0.243572	0.676196
662	C	0.777041	0.25874	0.636374
663	C	0.753401	0.271359	0.63276
664	C	0.731393	0.268876	0.335297
665	C	0.734402	0.253664	0.375955
666	H	0.752513	0.282224	0.603049
667	H	0.791914	0.260657	0.60906
668	C	0.75858	0.240869	0.379593
669	N	0.714074	0.250182	0.414429
670	N	0.760771	0.224551	0.419298
671	O	0.720276	0.279179	0.430617
672	O	0.771112	0.245119	0.452118
673	O	0.681525	0.230032	0.409194
674	O	0.732578	0.196771	0.428614
675	C	0.705729	0.281867	0.330554
676	H	0.712364	0.302137	0.355919
677	H	0.679227	0.259959	0.337437
678	C	0.805171	0.229284	0.674615
679	H	0.829946	0.248674	0.658826
680	H	0.792833	0.206175	0.652789
681	C	0.754506	0.036469	0.676163
682	C	0.739325	0.017914	0.636354
683	C	0.726679	0.481649	0.63276
684	C	0.729189	0.462134	0.335291
685	C	0.744447	0.480373	0.375925
686	H	0.715808	0.469891	0.603045
687	H	0.737417	0.03087	0.609023
688	C	0.757269	0.017351	0.379536
689	N	0.747966	0.463543	0.414392
690	N	0.773654	0.035891	0.419202
691	O	0.718985	0.440753	0.430614
692	O	0.753132	0.025692	0.452068
693	O	0.768113	0.451143	0.409117
694	O	0.801436	0.035463	0.428454
695	C	0.716198	0.42348	0.330555
696	H	0.695939	0.409851	0.355932
697	H	0.738105	0.418884	0.337421
698	C	0.768964	0.075534	0.674515
699	H	0.749734	0.081038	0.658467
700	H	0.792179	0.086211	0.652899
701	C	0.961589	0.217642	0.676203
702	C	0.980133	0.22101	0.636384
703	C	0.516392	0.244652	0.632766
704	C	0.53592	0.266671	0.335297
705	C	0.517697	0.263671	0.375952
706	H	0.528145	0.245534	0.603052
707	H	0.967178	0.206126	0.609073
708	C	0.980725	0.23949	0.379593
709	N	0.534542	0.284012	0.414419
710	N	0.962215	0.237305	0.419298
711	O	0.557338	0.277818	0.430614
712	O	0.972448	0.226977	0.452124
713	O	0.546937	0.316558	0.409164
714	O	0.962626	0.265499	0.428597
715	C	0.574572	0.292333	0.330549
716	H	0.588207	0.285706	0.355922
717	H	0.579167	0.318838	0.337421
718	C	0.922548	0.192879	0.674629
719	H	0.917171	0.168091	0.658873
720	H	0.911772	0.205192	0.652776
721	C	0.684704	0.314421	0.619417
722	C	0.647439	0.295473	0.619294
723	C	0.628155	0.313347	0.619424
724	C	0.646471	0.350611	0.619297
725	C	0.683628	0.369897	0.619427
726	C	0.702575	0.351579	0.619284
727	H	0.632605	0.363736	0.619537
728	H	0.729565	0.365443	0.619537
729	H	0.634312	0.268483	0.61953
730	N	0.704929	0.297412	0.620132
731	H	0.695911	0.27849	0.595644
732	N	0.700636	0.407131	0.620139
733	H	0.71955	0.417032	0.59564
734	N	0.590916	0.293122	0.620132
735	H	0.581015	0.302135	0.595634
736	C	0.823858	0.193274	0.716834
737	C	0.859354	0.201331	0.71707
738	C	0.867846	0.174215	0.716837
739	C	0.840406	0.138718	0.717023
740	C	0.804793	0.13022	0.71679
741	C	0.796743	0.157664	0.717043
742	H	0.846423	0.118934	0.717346
743	H	0.770944	0.151654	0.717366
744	H	0.879139	0.22713	0.717419
745	N	0.814344	0.219699	0.717982
746	H	0.83251	0.241825	0.734853
747	N	0.778359	0.094278	0.717895
748	H	0.756152	0.090328	0.734543
749	N	0.903784	0.183728	0.717992
750	H	0.907747	0.16558	0.734899
751	C	0.780417	0.243572	0.009529
752	C	0.777041	0.25874	0.969708
753	C	0.753401	0.271359	0.96609
754	C	0.731393	0.268876	0.668631
755	C	0.734402	0.253664	0.709289
756	H	0.752513	0.282224	0.936379
757	H	0.791914	0.260657	0.942393
758	C	0.75858	0.240869	0.712923
759	N	0.714074	0.250182	0.747763
760	N	0.760771	0.224551	0.752632
761	O	0.720276	0.279179	0.763951
762	O	0.771112	0.245119	0.785451
763	O	0.681525	0.230032	0.742527
764	O	0.732578	0.196771	0.761944
765	C	0.705729	0.281867	0.663888
766	H	0.712364	0.302137	0.689249
767	H	0.679227	0.259959	0.670771
768	C	0.805171	0.229284	0.007951
769	H	0.829946	0.248674	0.99216
770	H	0.792833	0.206175	0.986119
771	C	0.754506	0.036469	0.009497
772	C	0.739325	0.017914	0.969688
773	C	0.726679	0.481649	0.966094
774	C	0.729189	0.462134	0.668625
775	C	0.744447	0.480373	0.709255
776	H	0.715808	0.469891	0.936379
777	H	0.737417	0.03087	0.942353
778	C	0.757269	0.017351	0.71287
779	N	0.747966	0.463543	0.747723
780	N	0.773654	0.035891	0.752535
781	O	0.718985	0.440753	0.763948
782	O	0.753132	0.025692	0.785402
783	O	0.768113	0.451143	0.742451
784	O	0.801436	0.035463	0.761785
785	C	0.716198	0.42348	0.663888
786	H	0.695939	0.409851	0.689266
787	H	0.738105	0.418884	0.670755
788	C	0.768964	0.075534	0.00785
789	H	0.749734	0.081038	0.991801
790	H	0.792179	0.086211	0.986229
791	C	0.961589	0.217642	0.009537
792	C	0.980133	0.22101	0.969718
793	C	0.516392	0.244652	0.966097
794	C	0.53592	0.266671	0.668628
795	C	0.517697	0.263671	0.709282
796	H	0.528145	0.245534	0.936386
797	H	0.967178	0.206126	0.942407
798	C	0.980725	0.23949	0.712926
799	N	0.534542	0.284012	0.747749
800	N	0.962215	0.237305	0.752632
801	O	0.557338	0.277818	0.763948
802	O	0.972448	0.226977	0.785455
803	O	0.546937	0.316558	0.742498
804	O	0.962626	0.265499	0.761931
805	C	0.574572	0.292333	0.663882
806	H	0.588207	0.285706	0.689256
807	H	0.579167	0.318838	0.670751
808	C	0.922548	0.192879	0.007963
809	H	0.917171	0.168091	0.992207
810	H	0.911772	0.205192	0.986106
811	C	0.684704	0.814423	0.952751
812	C	0.647439	0.795474	0.952624
813	C	0.628153	0.813346	0.952754
814	C	0.64647	0.85061	0.952631
815	C	0.683628	0.869895	0.952761
816	C	0.702576	0.85158	0.952618
817	H	0.632607	0.863738	0.952871
818	H	0.729567	0.865445	0.952871
819	H	0.634314	0.768485	0.952864
820	N	0.704929	0.797411	0.953463
821	H	0.695912	0.778489	0.928974
822	N	0.700638	0.907132	0.953473
823	H	0.719551	0.917034	0.928974
824	N	0.590917	0.793121	0.953466
825	H	0.581016	0.802136	0.928967
826	C	0.823858	0.693275	0.050167
827	C	0.859355	0.701332	0.050403
828	C	0.867848	0.674216	0.05017
829	C	0.840407	0.638718	0.050356
830	C	0.804794	0.63022	0.050124
831	C	0.796741	0.657663	0.050376
832	H	0.846421	0.618933	0.05068
833	H	0.770943	0.651653	0.0507
834	H	0.87914	0.727129	0.050753
835	N	0.814345	0.7197	0.051317
836	H	0.832509	0.741825	0.068187
837	N	0.77836	0.594278	0.051229
838	H	0.756151	0.590329	0.067877
839	N	0.903786	0.68373	0.051325
840	H	0.907749	0.665581	0.068235
841	C	0.780418	0.743571	0.342862
842	C	0.777043	0.758742	0.303041
843	C	0.7534	0.77136	0.299426
844	C	0.731392	0.768878	0.001965
845	C	0.734401	0.753665	0.042621
846	H	0.752513	0.782225	0.269714
847	H	0.791915	0.760657	0.275726
848	C	0.758579	0.74087	0.046259
849	N	0.714073	0.750183	0.081098
850	N	0.760773	0.724552	0.085966
851	O	0.720276	0.779178	0.097285
852	O	0.771111	0.74512	0.118785
853	O	0.681526	0.730032	0.075861
854	O	0.732577	0.696771	0.09528
855	C	0.705727	0.781866	0.997219
856	H	0.712362	0.802136	0.022585
857	H	0.679226	0.75996	0.004106
858	C	0.805171	0.729285	0.341285
859	H	0.829947	0.748674	0.325495
860	H	0.792833	0.706176	0.319455
861	C	0.754508	0.536471	0.342829
862	C	0.739324	0.517915	0.303021
863	C	0.726679	0.981651	0.299427
864	C	0.729191	0.962135	0.001957
865	C	0.744449	0.980374	0.042591
866	H	0.715806	0.969889	0.269714
867	H	0.737416	0.530869	0.275689
868	C	0.757268	0.517351	0.046203
869	N	0.747967	0.963542	0.081058
870	N	0.773653	0.53589	0.08587
871	O	0.718985	0.940755	0.097283
872	O	0.753134	0.525693	0.118736
873	O	0.768111	0.951142	0.075786
874	O	0.801435	0.535463	0.09512
875	C	0.7162	0.923482	0.997219
876	H	0.695938	0.90985	0.0226
877	H	0.738107	0.918886	0.004089
878	C	0.768962	0.575533	0.341182
879	H	0.749735	0.581039	0.325134
880	H	0.79218	0.58621	0.319565
881	C	0.96159	0.717642	0.342869
882	C	0.980135	0.721011	0.303052
883	C	0.516393	0.744653	0.299433
884	C	0.535918	0.76667	0.001963
885	C	0.517697	0.763672	0.042617
886	H	0.528146	0.745534	0.26972
887	H	0.967176	0.706126	0.27574
888	C	0.980724	0.73949	0.046259
889	N	0.534543	0.784014	0.081085
890	N	0.962216	0.737305	0.085965
891	O	0.557338	0.777819	0.097282
892	O	0.972449	0.726976	0.11879
893	O	0.546938	0.81656	0.075831
894	O	0.962624	0.765498	0.095265
895	C	0.574572	0.792335	0.997216
896	H	0.588207	0.785707	0.02259
897	H	0.579166	0.818837	0.004087
898	C	0.922549	0.692879	0.341295
899	H	0.917173	0.668092	0.325541
900	H	0.911771	0.705192	0.319441
901	C	0.684704	0.814423	0.286085
902	C	0.647439	0.795474	0.285959
903	C	0.628153	0.813346	0.286089
904	C	0.64647	0.85061	0.285964
905	C	0.683628	0.869895	0.286094
906	C	0.702576	0.85158	0.28595
907	H	0.632607	0.863738	0.286203
908	H	0.729567	0.865445	0.286205
909	H	0.634314	0.768485	0.286197
910	N	0.704929	0.797411	0.286798
911	H	0.695912	0.778489	0.262309
912	N	0.700638	0.907132	0.286806
913	H	0.719551	0.917034	0.262307
914	N	0.590917	0.793121	0.286799
915	H	0.581016	0.802136	0.262301
916	C	0.823858	0.693275	0.3835
917	C	0.859355	0.701332	0.383736
918	C	0.867848	0.674216	0.383503
919	C	0.840407	0.638718	0.38369
920	C	0.804794	0.63022	0.383457
921	C	0.796741	0.657663	0.38371
922	H	0.846421	0.618933	0.384012
923	H	0.770943	0.651653	0.384032
924	H	0.87914	0.727129	0.384086
925	N	0.814345	0.7197	0.384648
926	H	0.832509	0.741825	0.401519
927	N	0.77836	0.594278	0.384562
928	H	0.756151	0.590329	0.401209
929	N	0.903786	0.68373	0.384658
930	H	0.907749	0.665581	0.401569
931	C	0.780418	0.743571	0.676196
932	C	0.777043	0.758742	0.636374
933	C	0.7534	0.77136	0.63276
934	C	0.731392	0.768878	0.335297
935	C	0.734401	0.753665	0.375955
936	H	0.752513	0.782225	0.603049
937	H	0.791915	0.760657	0.60906
938	C	0.758579	0.74087	0.379593
939	N	0.714073	0.750183	0.414429
940	N	0.760773	0.724552	0.419298
941	O	0.720276	0.779178	0.430617
942	O	0.771111	0.74512	0.452118
943	O	0.681526	0.730032	0.409194
944	O	0.732577	0.696771	0.428614
945	C	0.705727	0.781866	0.330554
946	H	0.712362	0.802136	0.355919
947	H	0.679226	0.75996	0.337437
948	C	0.805171	0.729285	0.674615
949	H	0.829947	0.748674	0.658826
950	H	0.792833	0.706176	0.652789
951	C	0.754508	0.536471	0.676163
952	C	0.739324	0.517915	0.636354
953	C	0.726679	0.981651	0.63276
954	C	0.729191	0.962135	0.335291
955	C	0.744449	0.980374	0.375925
956	H	0.715806	0.969889	0.603045
957	H	0.737416	0.530869	0.609023
958	C	0.757268	0.517351	0.379536
959	N	0.747967	0.963542	0.414392
960	N	0.773653	0.53589	0.419202
961	O	0.718985	0.940755	0.430614
962	O	0.753134	0.525693	0.452068
963	O	0.768111	0.951142	0.409117
964	O	0.801435	0.535463	0.428454
965	C	0.7162	0.923482	0.330555
966	H	0.695938	0.90985	0.355932
967	H	0.738107	0.918886	0.337421
968	C	0.768962	0.575533	0.674515
969	H	0.749735	0.581039	0.658467
970	H	0.79218	0.58621	0.652899
971	C	0.96159	0.717642	0.676203
972	C	0.980135	0.721011	0.636384
973	C	0.516393	0.744653	0.632766
974	C	0.535918	0.76667	0.335297
975	C	0.517697	0.763672	0.375952
976	H	0.528146	0.745534	0.603052
977	H	0.967176	0.706126	0.609073
978	C	0.980724	0.73949	0.379593
979	N	0.534543	0.784014	0.414419
980	N	0.962216	0.737305	0.419298
981	O	0.557338	0.777819	0.430614
982	O	0.972449	0.726976	0.452124
983	O	0.546938	0.81656	0.409164
984	O	0.962624	0.765498	0.428597
985	C	0.574572	0.792335	0.330549
986	H	0.588207	0.785707	0.355922
987	H	0.579166	0.818837	0.337421
988	C	0.922549	0.692879	0.674629
989	H	0.917173	0.668092	0.658873
990	H	0.911771	0.705192	0.652776
991	C	0.684704	0.814423	0.619417
992	C	0.647439	0.795474	0.619294
993	C	0.628153	0.813346	0.619424
994	C	0.64647	0.85061	0.619297
995	C	0.683628	0.869895	0.619427
996	C	0.702576	0.85158	0.619284
997	H	0.632607	0.863738	0.619537
998	H	0.729567	0.865445	0.619537
999	H	0.634314	0.768485	0.61953
1000	N	0.704929	0.797411	0.620132
1001	H	0.695912	0.778489	0.595644
1002	N	0.700638	0.907132	0.620139
1003	H	0.719551	0.917034	0.59564
1004	N	0.590917	0.793121	0.620132
1005	H	0.581016	0.802136	0.595634
1006	C	0.823858	0.693275	0.716834
1007	C	0.859355	0.701332	0.71707
1008	C	0.867848	0.674216	0.716837
1009	C	0.840407	0.638718	0.717023
1010	C	0.804794	0.63022	0.71679
1011	C	0.796741	0.657663	0.717043
1012	H	0.846421	0.618933	0.717346
1013	H	0.770943	0.651653	0.717366
1014	H	0.87914	0.727129	0.717419
1015	N	0.814345	0.7197	0.717982
1016	H	0.832509	0.741825	0.734853
1017	N	0.77836	0.594278	0.717895
1018	H	0.756151	0.590329	0.734543
1019	N	0.903786	0.68373	0.717992
1020	H	0.907749	0.665581	0.734899
1021	C	0.780418	0.743571	0.009529
1022	C	0.777043	0.758742	0.969708
1023	C	0.7534	0.77136	0.96609
1024	C	0.731392	0.768878	0.668631
1025	C	0.734401	0.753665	0.709289
1026	H	0.752513	0.782225	0.936379
1027	H	0.791915	0.760657	0.942393
1028	C	0.758579	0.74087	0.712923
1029	N	0.714073	0.750183	0.747763
1030	N	0.760773	0.724552	0.752632
1031	O	0.720276	0.779178	0.763951
1032	O	0.771111	0.74512	0.785451
1033	O	0.681526	0.730032	0.742527
1034	O	0.732577	0.696771	0.761944
1035	C	0.705727	0.781866	0.663888
1036	H	0.712362	0.802136	0.689249
1037	H	0.679226	0.75996	0.670771
1038	C	0.805171	0.729285	0.007951
1039	H	0.829947	0.748674	0.99216
1040	H	0.792833	0.706176	0.986119
1041	C	0.754508	0.536471	0.009497
1042	C	0.739324	0.517915	0.969688
1043	C	0.726679	0.981651	0.966094
1044	C	0.729191	0.962135	0.668625
1045	C	0.744449	0.980374	0.709255
1046	H	0.715806	0.969889	0.936379
1047	H	0.737416	0.530869	0.942353
1048	C	0.757268	0.517351	0.71287
1049	N	0.747967	0.963542	0.747723
1050	N	0.773653	0.53589	0.752535
1051	O	0.718985	0.940755	0.763948
1052	O	0.753134	0.525693	0.785402
1053	O	0.768111	0.951142	0.742451
1054	O	0.801435	0.535463	0.761785
1055	C	0.7162	0.923482	0.663888
1056	H	0.695938	0.90985	0.689266
1057	H	0.738107	0.918886	0.670755
1058	C	0.768962	0.575533	0.00785
1059	H	0.749735	0.581039	0.991801
1060	H	0.79218	0.58621	0.986229
1061	C	0.96159	0.717642	0.009537
1062	C	0.980135	0.721011	0.969718
1063	C	0.516393	0.744653	0.966097
1064	C	0.535918	0.76667	0.668628
1065	C	0.517697	0.763672	0.709282
1066	H	0.528146	0.745534	0.936386
1067	H	0.967176	0.706126	0.942407
1068	C	0.980724	0.73949	0.712926
1069	N	0.534543	0.784014	0.747749
1070	N	0.962216	0.737305	0.752632
1071	O	0.557338	0.777819	0.763948
1072	O	0.972449	0.726976	0.785455
1073	O	0.546938	0.81656	0.742498
1074	O	0.962624	0.765498	0.761931
1075	C	0.574572	0.792335	0.663882
1076	H	0.588207	0.785707	0.689256
1077	H	0.579166	0.818837	0.670751
1078	C	0.922549	0.692879	0.007963
1079	H	0.917173	0.668092	0.992207
1080	H	0.911771	0.705192	0.986106
