data_C504H216N144O144_2018-02-15_10:36:47
#******************************************
#
# CIF file created by Zeo++
# Zeo++ is an open source package to
# analyze microporous materials
#
#*******************************************

_cell_length_a		44.1129   
_cell_length_b		44.1128   
_cell_length_c		29.7264   
_cell_angle_alpha		90   
_cell_angle_beta		90   
_cell_angle_gamma		120   

_symmetry_space_group_name_H-M		'P1'
_symmetry_Int_Tables_number		1
_symmetry_cell_setting		Monoclinic

loop_
_symmetry_equiv_pos_as_xyz
'+x,+y,+z'

loop_
_atom_site_label
_atom_site_type_symbol
_atom_site_fract_x
_atom_site_fract_y
_atom_site_fract_z
1	C	0.08065	0.317448	0.325148
2	C	0.043758	0.298939	0.324779
3	C	0.024858	0.263496	0.004812
4	C	0.043791	0.246991	0.018186
5	C	0.080684	0.265417	0.017843
6	H	0.030818	0.221306	0.028004
7	H	0.093326	0.252455	0.027935
8	H	0.093267	0.34305	0.315056
9	H	0.030761	0.311626	0.314963
10	C	0.08065	0.317448	0.65848
11	C	0.043758	0.298939	0.658113
12	C	0.024858	0.263496	0.338144
13	C	0.043791	0.246991	0.35152
14	C	0.080684	0.265417	0.351177
15	H	0.030818	0.221306	0.361336
16	H	0.093326	0.252455	0.361269
17	H	0.093267	0.34305	0.648388
18	H	0.030761	0.311626	0.648297
19	C	0.08065	0.317448	0.991813
20	C	0.043758	0.298939	0.991443
21	C	0.024858	0.263496	0.671478
22	C	0.043791	0.246991	0.684854
23	C	0.080684	0.265417	0.68451
24	H	0.030818	0.221306	0.69467
25	H	0.093326	0.252455	0.694602
26	H	0.093267	0.34305	0.981721
27	H	0.030761	0.311626	0.981627
28	C	0.080649	0.817447	0.325148
29	C	0.043758	0.798938	0.324779
30	C	0.02486	0.763498	0.004812
31	C	0.043791	0.746992	0.018186
32	C	0.080683	0.765417	0.017843
33	H	0.030816	0.721305	0.028004
34	H	0.093325	0.752455	0.027935
35	H	0.093266	0.84305	0.315056
36	H	0.030762	0.811628	0.314963
37	C	0.080649	0.817447	0.65848
38	C	0.043758	0.798938	0.658113
39	C	0.02486	0.763498	0.338144
40	C	0.043791	0.746992	0.35152
41	C	0.080683	0.765417	0.351177
42	H	0.030816	0.721305	0.361336
43	H	0.093325	0.752455	0.361269
44	H	0.093266	0.84305	0.648388
45	H	0.030762	0.811628	0.648297
46	C	0.080649	0.817447	0.991813
47	C	0.043758	0.798938	0.991443
48	C	0.02486	0.763498	0.671478
49	C	0.043791	0.746992	0.684854
50	C	0.080683	0.765417	0.68451
51	H	0.030816	0.721305	0.69467
52	H	0.093325	0.752455	0.694602
53	H	0.093266	0.84305	0.981721
54	H	0.030762	0.811628	0.981627
55	N	0.155996	0.355474	0.004839
56	C	0.137399	0.31983	0.00484
57	N	0.156036	0.302826	0.00484
58	C	0.099968	0.301093	0.338165
59	N	0.155996	0.355474	0.338171
60	C	0.137399	0.31983	0.338171
61	N	0.156036	0.302826	0.338171
62	C	0.099968	0.301093	0.671498
63	N	0.155996	0.355474	0.671505
64	C	0.137399	0.31983	0.671505
65	N	0.156036	0.302826	0.671505
66	C	0.099968	0.301093	0.004833
67	N	0.155994	0.855473	0.004839
68	C	0.137399	0.819829	0.00484
69	N	0.156037	0.802825	0.00484
70	C	0.099967	0.801092	0.338165
71	N	0.155994	0.855473	0.338171
72	C	0.137399	0.819829	0.338171
73	N	0.156037	0.802825	0.338171
74	C	0.099967	0.801092	0.671498
75	N	0.155994	0.855473	0.671505
76	C	0.137399	0.819829	0.671505
77	N	0.156037	0.802825	0.671505
78	C	0.099967	0.801092	0.004833
79	C	0.191636	0.374108	0.004841
80	C	0.191679	0.319872	0.004841
81	N	0.208684	0.355513	0.004841
82	C	0.19406	0.265504	0.325156
83	H	0.16846	0.25252	0.31505
84	H	0.199883	0.221438	0.31496
85	C	0.193939	0.430824	0.017848
86	H	0.199694	0.480689	0.02801
87	H	0.168337	0.418184	0.027939
88	C	0.191636	0.374108	0.338175
89	C	0.191679	0.319872	0.338175
90	N	0.208684	0.355513	0.338175
91	C	0.19406	0.265504	0.65849
92	H	0.16846	0.25252	0.648384
93	H	0.199883	0.221438	0.648293
94	C	0.193939	0.430824	0.35118
95	H	0.199694	0.480689	0.361343
96	H	0.168337	0.418184	0.361272
97	C	0.191636	0.374108	0.671505
98	C	0.191679	0.319872	0.671505
99	N	0.208684	0.355513	0.671505
100	C	0.19406	0.265504	0.99182
101	H	0.16846	0.25252	0.981715
102	H	0.199883	0.221438	0.981624
103	C	0.193939	0.430824	0.684514
104	H	0.199694	0.480689	0.694676
105	H	0.168337	0.418184	0.694606
106	C	0.191636	0.874111	0.004841
107	C	0.191678	0.819871	0.004841
108	N	0.208683	0.855512	0.004841
109	C	0.19406	0.765503	0.325156
110	H	0.16846	0.75252	0.31505
111	H	0.199883	0.721439	0.31496
112	C	0.19394	0.930826	0.017848
113	H	0.199695	0.980692	0.02801
114	H	0.168337	0.918183	0.027939
115	C	0.191636	0.874111	0.338175
116	C	0.191678	0.819871	0.338175
117	N	0.208683	0.855512	0.338175
118	C	0.19406	0.765503	0.65849
119	H	0.16846	0.75252	0.648384
120	H	0.199883	0.721439	0.648293
121	C	0.19394	0.930826	0.35118
122	H	0.199695	0.980692	0.361343
123	H	0.168337	0.918183	0.361272
124	C	0.191636	0.874111	0.671505
125	C	0.191678	0.819871	0.671505
126	N	0.208683	0.855512	0.671505
127	C	0.19406	0.765503	0.99182
128	H	0.16846	0.75252	0.981715
129	H	0.199883	0.721439	0.981624
130	C	0.19394	0.930826	0.684514
131	H	0.199695	0.980692	0.694676
132	H	0.168337	0.918183	0.694606
133	C	0.322338	0.135538	0.004785
134	N	0.357934	0.153508	0.004787
135	C	0.37597	0.189103	0.004786
136	N	0.358002	0.206729	0.004787
137	C	0.322405	0.18917	0.004786
138	N	0.304779	0.153574	0.004787
139	C	0.210416	0.301177	0.338168
140	C	0.21257	0.247123	0.32478
141	C	0.248011	0.263664	0.004816
142	C	0.264516	0.299101	0.018193
143	C	0.246091	0.317568	0.017849
144	H	0.290202	0.311815	0.028012
145	H	0.259052	0.343171	0.027941
146	C	0.2667	0.245004	0.004811
147	C	0.278216	0.237779	0.296939
148	C	0.296869	0.21933	0.29748
149	C	0.303985	0.207657	0.004794
150	C	0.292341	0.214793	0.045451
151	C	0.273922	0.233476	0.046008
152	H	0.305194	0.214312	0.267695
153	H	0.297343	0.206447	0.075229
154	N	0.262166	0.24037	0.087075
155	N	0.271336	0.249557	0.25588
156	O	0.253093	0.224463	0.229883
157	O	0.241107	0.212547	0.106975
158	O	0.287274	0.258601	0.11306
159	O	0.299167	0.270606	0.235988
160	C	0.210331	0.41154	0.338168
161	C	0.246004	0.430858	0.325156
162	C	0.264386	0.467751	0.32478
163	C	0.247844	0.48665	0.004815
164	C	0.212406	0.467717	0.018192
165	C	0.266505	0.023998	0.00481
166	C	0.273729	0.04274	0.296939
167	C	0.292178	0.079841	0.297479
168	C	0.303853	0.098631	0.004794
169	C	0.296716	0.079849	0.045451
170	C	0.278033	0.042748	0.046007
171	H	0.297197	0.093184	0.267695
172	H	0.305063	0.093198	0.075229
173	H	0.258988	0.418241	0.315051
174	H	0.29007	0.480747	0.31496
175	N	0.271139	0.024098	0.087075
176	N	0.261952	0.024081	0.25588
177	O	0.287044	0.030932	0.229883
178	O	0.298963	0.530864	0.106974
179	O	0.252908	0.030975	0.11306
180	O	0.240901	0.530864	0.235988
181	C	0.48751	0.244809	0.004808
182	C	0.468767	0.233292	0.296937
183	C	0.431667	0.214639	0.297479
184	C	0.412877	0.207523	0.004794
185	C	0.43166	0.219169	0.04545
186	C	0.468762	0.237588	0.046006
187	H	0.418323	0.206313	0.267694
188	H	0.418312	0.214167	0.075228
189	N	0.487411	0.249344	0.087073
190	N	0.487427	0.240171	0.255878
191	O	0.480576	0.258414	0.229881
192	O	0.980646	0.270404	0.106972
193	O	0.480534	0.224237	0.113058
194	O	0.980644	0.21234	0.235987
195	C	0.322338	0.135538	0.338117
196	N	0.357934	0.153508	0.338121
197	C	0.37597	0.189103	0.338117
198	N	0.358002	0.206729	0.338121
199	C	0.322405	0.18917	0.338117
200	N	0.304779	0.153574	0.338121
201	C	0.210416	0.301177	0.671502
202	C	0.21257	0.247123	0.658113
203	C	0.248011	0.263664	0.338148
204	C	0.264516	0.299101	0.351526
205	C	0.246091	0.317568	0.351183
206	H	0.290202	0.311815	0.361346
207	H	0.259052	0.343171	0.361272
208	C	0.2667	0.245004	0.338144
209	C	0.278216	0.237779	0.630272
210	C	0.296869	0.21933	0.630814
211	C	0.303985	0.207657	0.338128
212	C	0.292341	0.214793	0.378785
213	C	0.273922	0.233476	0.37934
214	H	0.305194	0.214312	0.601029
215	H	0.297343	0.206447	0.408563
216	N	0.262166	0.24037	0.420408
217	N	0.271336	0.249557	0.589215
218	O	0.253093	0.224463	0.563217
219	O	0.241107	0.212547	0.440306
220	O	0.287274	0.258601	0.446392
221	O	0.299167	0.270606	0.56932
222	C	0.210331	0.41154	0.671502
223	C	0.246004	0.430858	0.65849
224	C	0.264386	0.467751	0.658113
225	C	0.247844	0.48665	0.338148
226	C	0.212406	0.467717	0.351523
227	C	0.266505	0.023998	0.338144
228	C	0.273729	0.04274	0.630272
229	C	0.292178	0.079841	0.630811
230	C	0.303853	0.098631	0.338128
231	C	0.296716	0.079849	0.378785
232	C	0.278033	0.042748	0.37934
233	H	0.297197	0.093184	0.601029
234	H	0.305063	0.093198	0.408563
235	H	0.258988	0.418241	0.648384
236	H	0.29007	0.480747	0.648293
237	N	0.271139	0.024098	0.420408
238	N	0.261952	0.024081	0.589215
239	O	0.287044	0.030932	0.563214
240	O	0.298963	0.530864	0.440306
241	O	0.252908	0.030975	0.446392
242	O	0.240901	0.530864	0.56932
243	C	0.48751	0.244809	0.338141
244	C	0.468767	0.233292	0.630269
245	C	0.431667	0.214639	0.630811
246	C	0.412877	0.207523	0.338128
247	C	0.43166	0.219169	0.378782
248	C	0.468762	0.237588	0.37934
249	H	0.418323	0.206313	0.601026
250	H	0.418312	0.214167	0.40856
251	N	0.487411	0.249344	0.420405
252	N	0.487427	0.240171	0.589211
253	O	0.480576	0.258414	0.563214
254	O	0.980646	0.270404	0.440306
255	O	0.480534	0.224237	0.446392
256	O	0.980644	0.21234	0.56932
257	C	0.322338	0.135538	0.671451
258	N	0.357934	0.153508	0.671451
259	C	0.37597	0.189103	0.671451
260	N	0.358002	0.206729	0.671451
261	C	0.322405	0.18917	0.671451
262	N	0.304779	0.153574	0.671451
263	C	0.210416	0.301177	0.004836
264	C	0.21257	0.247123	0.991447
265	C	0.248011	0.263664	0.671482
266	C	0.264516	0.299101	0.684857
267	C	0.246091	0.317568	0.684514
268	H	0.290202	0.311815	0.694676
269	H	0.259052	0.343171	0.694606
270	C	0.2667	0.245004	0.671475
271	C	0.278216	0.237779	0.963606
272	C	0.296869	0.21933	0.964144
273	C	0.303985	0.207657	0.671461
274	C	0.292341	0.214793	0.712116
275	C	0.273922	0.233476	0.712674
276	H	0.305194	0.214312	0.934359
277	H	0.297343	0.206447	0.741894
278	N	0.262166	0.24037	0.753742
279	N	0.271336	0.249557	0.922545
280	O	0.253093	0.224463	0.896548
281	O	0.241107	0.212547	0.77364
282	O	0.287274	0.258601	0.779726
283	O	0.299167	0.270606	0.902654
284	C	0.210331	0.41154	0.004836
285	C	0.246004	0.430858	0.99182
286	C	0.264386	0.467751	0.991447
287	C	0.247844	0.48665	0.671482
288	C	0.212406	0.467717	0.684857
289	C	0.266505	0.023998	0.671475
290	C	0.273729	0.04274	0.963603
291	C	0.292178	0.079841	0.964144
292	C	0.303853	0.098631	0.671461
293	C	0.296716	0.079849	0.712116
294	C	0.278033	0.042748	0.712674
295	H	0.297197	0.093184	0.934359
296	H	0.305063	0.093198	0.741894
297	H	0.258988	0.418241	0.981718
298	H	0.29007	0.480747	0.981627
299	N	0.271139	0.024098	0.753742
300	N	0.261952	0.024081	0.922545
301	O	0.287044	0.030932	0.896548
302	O	0.298963	0.530864	0.77364
303	O	0.252908	0.030975	0.779726
304	O	0.240901	0.530864	0.902654
305	C	0.48751	0.244809	0.671475
306	C	0.468767	0.233292	0.963603
307	C	0.431667	0.214639	0.964144
308	C	0.412877	0.207523	0.671458
309	C	0.43166	0.219169	0.712116
310	C	0.468762	0.237588	0.712671
311	H	0.418323	0.206313	0.934359
312	H	0.418312	0.214167	0.741894
313	N	0.487411	0.249344	0.753739
314	N	0.487427	0.240171	0.922545
315	O	0.480576	0.258414	0.896548
316	O	0.980646	0.270404	0.773637
317	O	0.480534	0.224237	0.779722
318	O	0.980644	0.21234	0.902654
319	C	0.322339	0.635539	0.004785
320	N	0.357935	0.653509	0.004787
321	C	0.37597	0.689103	0.004786
322	N	0.358001	0.70673	0.004787
323	C	0.322405	0.689169	0.004786
324	N	0.304779	0.653575	0.004787
325	C	0.210415	0.801176	0.338168
326	C	0.21257	0.747123	0.32478
327	C	0.248011	0.763663	0.004816
328	C	0.264517	0.799103	0.018193
329	C	0.246091	0.817568	0.017849
330	H	0.290202	0.811814	0.028012
331	H	0.259052	0.843173	0.027941
332	C	0.2667	0.745005	0.004811
333	C	0.278215	0.737778	0.296939
334	C	0.296868	0.719329	0.29748
335	C	0.303985	0.707657	0.004794
336	C	0.29234	0.714793	0.045451
337	C	0.273922	0.733477	0.046008
338	H	0.305195	0.714314	0.267695
339	H	0.297343	0.706448	0.075229
340	N	0.262165	0.740369	0.087075
341	N	0.271336	0.749557	0.25588
342	O	0.253093	0.724465	0.229883
343	O	0.241107	0.712547	0.106975
344	O	0.287274	0.758601	0.11306
345	O	0.299168	0.770608	0.235988
346	C	0.210332	0.911542	0.338168
347	C	0.246005	0.93086	0.325156
348	C	0.264386	0.96775	0.32478
349	C	0.247844	0.986649	0.004815
350	C	0.212407	0.967719	0.018192
351	C	0.266504	0.523998	0.00481
352	C	0.27373	0.54274	0.296939
353	C	0.292178	0.579842	0.297479
354	C	0.303852	0.598631	0.004794
355	C	0.296715	0.57985	0.045451
356	C	0.278032	0.542748	0.046007
357	H	0.297195	0.593184	0.267695
358	H	0.305061	0.593197	0.075229
359	H	0.258989	0.918243	0.315051
360	H	0.290071	0.980749	0.31496
361	N	0.271138	0.524097	0.087075
362	N	0.26195	0.524082	0.25588
363	O	0.287044	0.530932	0.229883
364	O	0.298963	0.030863	0.106974
365	O	0.252909	0.530976	0.11306
366	O	0.240901	0.030863	0.235988
367	C	0.48751	0.744809	0.004808
368	C	0.468769	0.733294	0.296937
369	C	0.431665	0.714638	0.297479
370	C	0.412877	0.707523	0.004794
371	C	0.431659	0.719169	0.04545
372	C	0.468762	0.737589	0.046006
373	H	0.418323	0.706314	0.267694
374	H	0.418311	0.714167	0.075228
375	N	0.487411	0.749345	0.087073
376	N	0.487425	0.74017	0.255878
377	O	0.480575	0.758415	0.229881
378	O	0.980646	0.770404	0.106972
379	O	0.480534	0.724237	0.113058
380	O	0.980644	0.71234	0.235987
381	C	0.322339	0.635539	0.338117
382	N	0.357935	0.653509	0.338121
383	C	0.37597	0.689103	0.338117
384	N	0.358001	0.70673	0.338121
385	C	0.322405	0.689169	0.338117
386	N	0.304779	0.653575	0.338121
387	C	0.210415	0.801176	0.671502
388	C	0.21257	0.747123	0.658113
389	C	0.248011	0.763663	0.338148
390	C	0.264517	0.799103	0.351526
391	C	0.246091	0.817568	0.351183
392	H	0.290202	0.811814	0.361346
393	H	0.259052	0.843173	0.361272
394	C	0.2667	0.745005	0.338144
395	C	0.278215	0.737778	0.630272
396	C	0.296868	0.719329	0.630814
397	C	0.303985	0.707657	0.338128
398	C	0.29234	0.714793	0.378785
399	C	0.273922	0.733477	0.37934
400	H	0.305195	0.714314	0.601029
401	H	0.297343	0.706448	0.408563
402	N	0.262165	0.740369	0.420408
403	N	0.271336	0.749557	0.589215
404	O	0.253093	0.724465	0.563217
405	O	0.241107	0.712547	0.440306
406	O	0.287274	0.758601	0.446392
407	O	0.299168	0.770608	0.56932
408	C	0.210332	0.911542	0.671502
409	C	0.246005	0.93086	0.65849
410	C	0.264386	0.96775	0.658113
411	C	0.247844	0.986649	0.338148
412	C	0.212407	0.967719	0.351523
413	C	0.266504	0.523998	0.338144
414	C	0.27373	0.54274	0.630272
415	C	0.292178	0.579842	0.630811
416	C	0.303852	0.598631	0.338128
417	C	0.296715	0.57985	0.378785
418	C	0.278032	0.542748	0.37934
419	H	0.297195	0.593184	0.601029
420	H	0.305061	0.593197	0.408563
421	H	0.258989	0.918243	0.648384
422	H	0.290071	0.980749	0.648293
423	N	0.271138	0.524097	0.420408
424	N	0.26195	0.524082	0.589215
425	O	0.287044	0.530932	0.563214
426	O	0.298963	0.030863	0.440306
427	O	0.252909	0.530976	0.446392
428	O	0.240901	0.030863	0.56932
429	C	0.48751	0.744809	0.338141
430	C	0.468769	0.733294	0.630269
431	C	0.431665	0.714638	0.630811
432	C	0.412877	0.707523	0.338128
433	C	0.431659	0.719169	0.378782
434	C	0.468762	0.737589	0.37934
435	H	0.418323	0.706314	0.601026
436	H	0.418311	0.714167	0.40856
437	N	0.487411	0.749345	0.420405
438	N	0.487425	0.74017	0.589211
439	O	0.480575	0.758415	0.563214
440	O	0.980646	0.770404	0.440306
441	O	0.480534	0.724237	0.446392
442	O	0.980644	0.71234	0.56932
443	C	0.322339	0.635539	0.671451
444	N	0.357935	0.653509	0.671451
445	C	0.37597	0.689103	0.671451
446	N	0.358001	0.70673	0.671451
447	C	0.322405	0.689169	0.671451
448	N	0.304779	0.653575	0.671451
449	C	0.210415	0.801176	0.004836
450	C	0.21257	0.747123	0.991447
451	C	0.248011	0.763663	0.671482
452	C	0.264517	0.799103	0.684857
453	C	0.246091	0.817568	0.684514
454	H	0.290202	0.811814	0.694676
455	H	0.259052	0.843173	0.694606
456	C	0.2667	0.745005	0.671475
457	C	0.278215	0.737778	0.963606
458	C	0.296868	0.719329	0.964144
459	C	0.303985	0.707657	0.671461
460	C	0.29234	0.714793	0.712116
461	C	0.273922	0.733477	0.712674
462	H	0.305195	0.714314	0.934359
463	H	0.297343	0.706448	0.741894
464	N	0.262165	0.740369	0.753742
465	N	0.271336	0.749557	0.922545
466	O	0.253093	0.724465	0.896548
467	O	0.241107	0.712547	0.77364
468	O	0.287274	0.758601	0.779726
469	O	0.299168	0.770608	0.902654
470	C	0.210332	0.911542	0.004836
471	C	0.246005	0.93086	0.99182
472	C	0.264386	0.96775	0.991447
473	C	0.247844	0.986649	0.671482
474	C	0.212407	0.967719	0.684857
475	C	0.266504	0.523998	0.671475
476	C	0.27373	0.54274	0.963603
477	C	0.292178	0.579842	0.964144
478	C	0.303852	0.598631	0.671461
479	C	0.296715	0.57985	0.712116
480	C	0.278032	0.542748	0.712674
481	H	0.297195	0.593184	0.934359
482	H	0.305061	0.593197	0.741894
483	H	0.258989	0.918243	0.981718
484	H	0.290071	0.980749	0.981627
485	N	0.271138	0.524097	0.753742
486	N	0.26195	0.524082	0.922545
487	O	0.287044	0.530932	0.896548
488	O	0.298963	0.030863	0.77364
489	O	0.252909	0.530976	0.779726
490	O	0.240901	0.030863	0.902654
491	C	0.48751	0.744809	0.671475
492	C	0.468769	0.733294	0.963603
493	C	0.431665	0.714638	0.964144
494	C	0.412877	0.707523	0.671458
495	C	0.431659	0.719169	0.712116
496	C	0.468762	0.737589	0.712671
497	H	0.418323	0.706314	0.934359
498	H	0.418311	0.714167	0.741894
499	N	0.487411	0.749345	0.753739
500	N	0.487425	0.74017	0.922545
501	O	0.480575	0.758415	0.896548
502	O	0.980646	0.770404	0.773637
503	O	0.480534	0.724237	0.779722
504	O	0.980644	0.71234	0.902654
505	C	0.691636	0.374108	0.004841
506	N	0.655996	0.355474	0.004839
507	C	0.637398	0.31983	0.00484
508	N	0.656036	0.302826	0.00484
509	C	0.691678	0.319872	0.004841
510	N	0.708682	0.355513	0.004841
511	C	0.822337	0.135538	0.004785
512	N	0.857933	0.153508	0.004787
513	C	0.875969	0.189103	0.004786
514	N	0.858001	0.206729	0.004787
515	C	0.822406	0.18917	0.004786
516	N	0.804778	0.153574	0.004787
517	C	0.710415	0.301177	0.338168
518	C	0.694059	0.265504	0.325156
519	C	0.71257	0.247123	0.32478
520	C	0.748012	0.263664	0.004816
521	C	0.764515	0.299101	0.018193
522	C	0.74609	0.317568	0.017849
523	H	0.790202	0.311815	0.028012
524	H	0.75905	0.343171	0.027941
525	C	0.766699	0.245004	0.004811
526	C	0.778215	0.237779	0.296939
527	C	0.796869	0.21933	0.29748
528	C	0.803984	0.207657	0.004794
529	C	0.792339	0.214793	0.045451
530	C	0.773922	0.233476	0.046008
531	H	0.805194	0.214312	0.267695
532	H	0.797342	0.206447	0.075229
533	H	0.66846	0.25252	0.31505
534	H	0.699882	0.221438	0.31496
535	N	0.762165	0.24037	0.087075
536	N	0.771335	0.249557	0.25588
537	O	0.753092	0.224463	0.229883
538	O	0.741108	0.212547	0.106975
539	O	0.787273	0.258601	0.11306
540	O	0.799167	0.270606	0.235988
541	C	0.71033	0.41154	0.338168
542	C	0.746004	0.430858	0.325156
543	C	0.764386	0.467751	0.32478
544	C	0.747843	0.48665	0.004815
545	C	0.712405	0.467717	0.018192
546	C	0.693938	0.430824	0.017848
547	H	0.699693	0.480689	0.02801
548	H	0.668336	0.418184	0.027939
549	C	0.766504	0.023998	0.00481
550	C	0.77373	0.04274	0.296939
551	C	0.792179	0.079841	0.297479
552	C	0.803852	0.098631	0.004794
553	C	0.796715	0.079849	0.045451
554	C	0.778032	0.042748	0.046007
555	H	0.797196	0.093184	0.267695
556	H	0.805062	0.093198	0.075229
557	H	0.758987	0.418241	0.315051
558	H	0.790069	0.480747	0.31496
559	N	0.771138	0.024098	0.087075
560	N	0.761951	0.024081	0.25588
561	O	0.787043	0.030932	0.229883
562	O	0.798962	0.530864	0.106974
563	O	0.752909	0.030975	0.11306
564	O	0.7409	0.530864	0.235988
565	C	0.599968	0.301093	0.338165
566	C	0.58065	0.317448	0.325148
567	C	0.543757	0.298939	0.324779
568	C	0.524857	0.263496	0.004812
569	C	0.543792	0.246991	0.018186
570	C	0.580684	0.265417	0.017843
571	H	0.530818	0.221306	0.028004
572	H	0.593324	0.252455	0.027935
573	C	0.987509	0.244809	0.004808
574	C	0.968769	0.233292	0.296937
575	C	0.931665	0.214639	0.297479
576	C	0.912876	0.207523	0.004794
577	C	0.931659	0.219169	0.04545
578	C	0.96876	0.237588	0.046006
579	H	0.918322	0.206313	0.267694
580	H	0.918311	0.214167	0.075228
581	H	0.593265	0.34305	0.315056
582	H	0.53076	0.311626	0.314963
583	N	0.98741	0.249344	0.087073
584	N	0.987426	0.240171	0.255878
585	O	0.980574	0.258414	0.229881
586	O	0.480647	0.270404	0.106972
587	O	0.980533	0.224237	0.113058
588	O	0.480645	0.21234	0.235987
589	C	0.691636	0.374108	0.338175
590	N	0.655996	0.355474	0.338171
591	C	0.637398	0.31983	0.338171
592	N	0.656036	0.302826	0.338171
593	C	0.691678	0.319872	0.338175
594	N	0.708682	0.355513	0.338175
595	C	0.822337	0.135538	0.338117
596	N	0.857933	0.153508	0.338121
597	C	0.875969	0.189103	0.338117
598	N	0.858001	0.206729	0.338121
599	C	0.822406	0.18917	0.338117
600	N	0.804778	0.153574	0.338121
601	C	0.710415	0.301177	0.671502
602	C	0.694059	0.265504	0.65849
603	C	0.71257	0.247123	0.658113
604	C	0.748012	0.263664	0.338148
605	C	0.764515	0.299101	0.351526
606	C	0.74609	0.317568	0.351183
607	H	0.790202	0.311815	0.361346
608	H	0.75905	0.343171	0.361272
609	C	0.766699	0.245004	0.338144
610	C	0.778215	0.237779	0.630272
611	C	0.796869	0.21933	0.630814
612	C	0.803984	0.207657	0.338128
613	C	0.792339	0.214793	0.378785
614	C	0.773922	0.233476	0.37934
615	H	0.805194	0.214312	0.601029
616	H	0.797342	0.206447	0.408563
617	H	0.66846	0.25252	0.648384
618	H	0.699882	0.221438	0.648293
619	N	0.762165	0.24037	0.420408
620	N	0.771335	0.249557	0.589215
621	O	0.753092	0.224463	0.563217
622	O	0.741108	0.212547	0.440306
623	O	0.787273	0.258601	0.446392
624	O	0.799167	0.270606	0.56932
625	C	0.71033	0.41154	0.671502
626	C	0.746004	0.430858	0.65849
627	C	0.764386	0.467751	0.658113
628	C	0.747843	0.48665	0.338148
629	C	0.712405	0.467717	0.351523
630	C	0.693938	0.430824	0.35118
631	H	0.699693	0.480689	0.361343
632	H	0.668336	0.418184	0.361272
633	C	0.766504	0.023998	0.338144
634	C	0.77373	0.04274	0.630272
635	C	0.792179	0.079841	0.630811
636	C	0.803852	0.098631	0.338128
637	C	0.796715	0.079849	0.378785
638	C	0.778032	0.042748	0.37934
639	H	0.797196	0.093184	0.601029
640	H	0.805062	0.093198	0.408563
641	H	0.758987	0.418241	0.648384
642	H	0.790069	0.480747	0.648293
643	N	0.771138	0.024098	0.420408
644	N	0.761951	0.024081	0.589215
645	O	0.787043	0.030932	0.563214
646	O	0.798962	0.530864	0.440306
647	O	0.752909	0.030975	0.446392
648	O	0.7409	0.530864	0.56932
649	C	0.599968	0.301093	0.671498
650	C	0.58065	0.317448	0.65848
651	C	0.543757	0.298939	0.658113
652	C	0.524857	0.263496	0.338144
653	C	0.543792	0.246991	0.35152
654	C	0.580684	0.265417	0.351177
655	H	0.530818	0.221306	0.361336
656	H	0.593324	0.252455	0.361269
657	C	0.987509	0.244809	0.338141
658	C	0.968769	0.233292	0.630269
659	C	0.931665	0.214639	0.630811
660	C	0.912876	0.207523	0.338128
661	C	0.931659	0.219169	0.378782
662	C	0.96876	0.237588	0.37934
663	H	0.918322	0.206313	0.601026
664	H	0.918311	0.214167	0.40856
665	H	0.593265	0.34305	0.648388
666	H	0.53076	0.311626	0.648297
667	N	0.98741	0.249344	0.420405
668	N	0.987426	0.240171	0.589211
669	O	0.980574	0.258414	0.563214
670	O	0.480647	0.270404	0.440306
671	O	0.980533	0.224237	0.446392
672	O	0.480645	0.21234	0.56932
673	C	0.691636	0.374108	0.671505
674	N	0.655996	0.355474	0.671505
675	C	0.637398	0.31983	0.671505
676	N	0.656036	0.302826	0.671505
677	C	0.691678	0.319872	0.671505
678	N	0.708682	0.355513	0.671505
679	C	0.822337	0.135538	0.671451
680	N	0.857933	0.153508	0.671451
681	C	0.875969	0.189103	0.671451
682	N	0.858001	0.206729	0.671451
683	C	0.822406	0.18917	0.671451
684	N	0.804778	0.153574	0.671451
685	C	0.710415	0.301177	0.004836
686	C	0.694059	0.265504	0.99182
687	C	0.71257	0.247123	0.991447
688	C	0.748012	0.263664	0.671482
689	C	0.764515	0.299101	0.684857
690	C	0.74609	0.317568	0.684514
691	H	0.790202	0.311815	0.694676
692	H	0.75905	0.343171	0.694606
693	C	0.766699	0.245004	0.671475
694	C	0.778215	0.237779	0.963606
695	C	0.796869	0.21933	0.964144
696	C	0.803984	0.207657	0.671461
697	C	0.792339	0.214793	0.712116
698	C	0.773922	0.233476	0.712674
699	H	0.805194	0.214312	0.934359
700	H	0.797342	0.206447	0.741894
701	H	0.66846	0.25252	0.981715
702	H	0.699882	0.221438	0.981624
703	N	0.762165	0.24037	0.753742
704	N	0.771335	0.249557	0.922545
705	O	0.753092	0.224463	0.896548
706	O	0.741108	0.212547	0.77364
707	O	0.787273	0.258601	0.779726
708	O	0.799167	0.270606	0.902654
709	C	0.71033	0.41154	0.004836
710	C	0.746004	0.430858	0.99182
711	C	0.764386	0.467751	0.991447
712	C	0.747843	0.48665	0.671482
713	C	0.712405	0.467717	0.684857
714	C	0.693938	0.430824	0.684514
715	H	0.699693	0.480689	0.694676
716	H	0.668336	0.418184	0.694606
717	C	0.766504	0.023998	0.671475
718	C	0.77373	0.04274	0.963603
719	C	0.792179	0.079841	0.964144
720	C	0.803852	0.098631	0.671461
721	C	0.796715	0.079849	0.712116
722	C	0.778032	0.042748	0.712674
723	H	0.797196	0.093184	0.934359
724	H	0.805062	0.093198	0.741894
725	H	0.758987	0.418241	0.981718
726	H	0.790069	0.480747	0.981627
727	N	0.771138	0.024098	0.753742
728	N	0.761951	0.024081	0.922545
729	O	0.787043	0.030932	0.896548
730	O	0.798962	0.530864	0.77364
731	O	0.752909	0.030975	0.779726
732	O	0.7409	0.530864	0.902654
733	C	0.599968	0.301093	0.004833
734	C	0.58065	0.317448	0.991813
735	C	0.543757	0.298939	0.991443
736	C	0.524857	0.263496	0.671478
737	C	0.543792	0.246991	0.684854
738	C	0.580684	0.265417	0.68451
739	H	0.530818	0.221306	0.69467
740	H	0.593324	0.252455	0.694602
741	C	0.987509	0.244809	0.671475
742	C	0.968769	0.233292	0.963603
743	C	0.931665	0.214639	0.964144
744	C	0.912876	0.207523	0.671458
745	C	0.931659	0.219169	0.712116
746	C	0.96876	0.237588	0.712671
747	H	0.918322	0.206313	0.934359
748	H	0.918311	0.214167	0.741894
749	H	0.593265	0.34305	0.981721
750	H	0.53076	0.311626	0.981627
751	N	0.98741	0.249344	0.753739
752	N	0.987426	0.240171	0.922545
753	O	0.980574	0.258414	0.896548
754	O	0.480647	0.270404	0.773637
755	O	0.980533	0.224237	0.779722
756	O	0.480645	0.21234	0.902654
757	C	0.691637	0.874111	0.004841
758	N	0.655995	0.855473	0.004839
759	C	0.637398	0.819829	0.00484
760	N	0.656036	0.802825	0.00484
761	C	0.691678	0.819871	0.004841
762	N	0.708682	0.855512	0.004841
763	C	0.822338	0.635539	0.004785
764	N	0.857934	0.653509	0.004787
765	C	0.875969	0.689103	0.004786
766	N	0.858001	0.70673	0.004787
767	C	0.822405	0.689169	0.004786
768	N	0.804778	0.653575	0.004787
769	C	0.710415	0.801176	0.338168
770	C	0.694059	0.765503	0.325156
771	C	0.71257	0.747123	0.32478
772	C	0.748009	0.763663	0.004816
773	C	0.764516	0.799103	0.018193
774	C	0.74609	0.817568	0.017849
775	H	0.790202	0.811814	0.028012
776	H	0.759051	0.843173	0.027941
777	C	0.766699	0.745005	0.004811
778	C	0.778215	0.737778	0.296939
779	C	0.796867	0.719329	0.29748
780	C	0.803984	0.707657	0.004794
781	C	0.792339	0.714793	0.045451
782	C	0.77392	0.733477	0.046008
783	H	0.805195	0.714314	0.267695
784	H	0.797343	0.706448	0.075229
785	H	0.668459	0.75252	0.31505
786	H	0.699882	0.721439	0.31496
787	N	0.762164	0.740369	0.087075
788	N	0.771335	0.749557	0.25588
789	O	0.753092	0.724465	0.229883
790	O	0.741106	0.712547	0.106975
791	O	0.787273	0.758601	0.11306
792	O	0.799166	0.770608	0.235988
793	C	0.710331	0.911542	0.338168
794	C	0.746005	0.93086	0.325156
795	C	0.764386	0.96775	0.32478
796	C	0.747843	0.986649	0.004815
797	C	0.712406	0.967719	0.018192
798	C	0.693939	0.930826	0.017848
799	H	0.699694	0.980692	0.02801
800	H	0.668336	0.918183	0.027939
801	C	0.766504	0.523998	0.00481
802	C	0.773728	0.54274	0.296939
803	C	0.792177	0.579842	0.297479
804	C	0.803852	0.598631	0.004794
805	C	0.796715	0.57985	0.045451
806	C	0.778032	0.542748	0.046007
807	H	0.797195	0.593184	0.267695
808	H	0.805061	0.593197	0.075229
809	H	0.758988	0.918243	0.315051
810	H	0.79007	0.980749	0.31496
811	N	0.771137	0.524097	0.087075
812	N	0.761951	0.524082	0.25588
813	O	0.787043	0.530932	0.229883
814	O	0.798962	0.030863	0.106974
815	O	0.752907	0.530976	0.11306
816	O	0.740899	0.030863	0.235988
817	C	0.599967	0.801092	0.338165
818	C	0.580649	0.817447	0.325148
819	C	0.543757	0.798938	0.324779
820	C	0.524859	0.763498	0.004812
821	C	0.543791	0.746992	0.018186
822	C	0.580683	0.765417	0.017843
823	H	0.530817	0.721305	0.028004
824	H	0.593325	0.752455	0.027935
825	C	0.987509	0.744809	0.004808
826	C	0.968769	0.733294	0.296937
827	C	0.931665	0.714638	0.297479
828	C	0.912876	0.707523	0.004794
829	C	0.931659	0.719169	0.04545
830	C	0.968761	0.737589	0.046006
831	H	0.918322	0.706314	0.267694
832	H	0.918311	0.714167	0.075228
833	H	0.593265	0.84305	0.315056
834	H	0.530761	0.811628	0.314963
835	N	0.987411	0.749345	0.087073
836	N	0.987425	0.74017	0.255878
837	O	0.980575	0.758415	0.229881
838	O	0.480647	0.770404	0.106972
839	O	0.980533	0.724237	0.113058
840	O	0.480644	0.71234	0.235987
841	C	0.691637	0.874111	0.338175
842	N	0.655995	0.855473	0.338171
843	C	0.637398	0.819829	0.338171
844	N	0.656036	0.802825	0.338171
845	C	0.691678	0.819871	0.338175
846	N	0.708682	0.855512	0.338175
847	C	0.822338	0.635539	0.338117
848	N	0.857934	0.653509	0.338121
849	C	0.875969	0.689103	0.338117
850	N	0.858001	0.70673	0.338121
851	C	0.822405	0.689169	0.338117
852	N	0.804778	0.653575	0.338121
853	C	0.710415	0.801176	0.671502
854	C	0.694059	0.765503	0.65849
855	C	0.71257	0.747123	0.658113
856	C	0.748009	0.763663	0.338148
857	C	0.764516	0.799103	0.351526
858	C	0.74609	0.817568	0.351183
859	H	0.790202	0.811814	0.361346
860	H	0.759051	0.843173	0.361272
861	C	0.766699	0.745005	0.338144
862	C	0.778215	0.737778	0.630272
863	C	0.796867	0.719329	0.630814
864	C	0.803984	0.707657	0.338128
865	C	0.792339	0.714793	0.378785
866	C	0.77392	0.733477	0.37934
867	H	0.805195	0.714314	0.601029
868	H	0.797343	0.706448	0.408563
869	H	0.668459	0.75252	0.648384
870	H	0.699882	0.721439	0.648293
871	N	0.762164	0.740369	0.420408
872	N	0.771335	0.749557	0.589215
873	O	0.753092	0.724465	0.563217
874	O	0.741106	0.712547	0.440306
875	O	0.787273	0.758601	0.446392
876	O	0.799166	0.770608	0.56932
877	C	0.710331	0.911542	0.671502
878	C	0.746005	0.93086	0.65849
879	C	0.764386	0.96775	0.658113
880	C	0.747843	0.986649	0.338148
881	C	0.712406	0.967719	0.351523
882	C	0.693939	0.930826	0.35118
883	H	0.699694	0.980692	0.361343
884	H	0.668336	0.918183	0.361272
885	C	0.766504	0.523998	0.338144
886	C	0.773728	0.54274	0.630272
887	C	0.792177	0.579842	0.630811
888	C	0.803852	0.598631	0.338128
889	C	0.796715	0.57985	0.378785
890	C	0.778032	0.542748	0.37934
891	H	0.797195	0.593184	0.601029
892	H	0.805061	0.593197	0.408563
893	H	0.758988	0.918243	0.648384
894	H	0.79007	0.980749	0.648293
895	N	0.771137	0.524097	0.420408
896	N	0.761951	0.524082	0.589215
897	O	0.787043	0.530932	0.563214
898	O	0.798962	0.030863	0.440306
899	O	0.752907	0.530976	0.446392
900	O	0.740899	0.030863	0.56932
901	C	0.599967	0.801092	0.671498
902	C	0.580649	0.817447	0.65848
903	C	0.543757	0.798938	0.658113
904	C	0.524859	0.763498	0.338144
905	C	0.543791	0.746992	0.35152
906	C	0.580683	0.765417	0.351177
907	H	0.530817	0.721305	0.361336
908	H	0.593325	0.752455	0.361269
909	C	0.987509	0.744809	0.338141
910	C	0.968769	0.733294	0.630269
911	C	0.931665	0.714638	0.630811
912	C	0.912876	0.707523	0.338128
913	C	0.931659	0.719169	0.378782
914	C	0.968761	0.737589	0.37934
915	H	0.918322	0.706314	0.601026
916	H	0.918311	0.714167	0.40856
917	H	0.593265	0.84305	0.648388
918	H	0.530761	0.811628	0.648297
919	N	0.987411	0.749345	0.420405
920	N	0.987425	0.74017	0.589211
921	O	0.980575	0.758415	0.563214
922	O	0.480647	0.770404	0.440306
923	O	0.980533	0.724237	0.446392
924	O	0.480644	0.71234	0.56932
925	C	0.691637	0.874111	0.671505
926	N	0.655995	0.855473	0.671505
927	C	0.637398	0.819829	0.671505
928	N	0.656036	0.802825	0.671505
929	C	0.691678	0.819871	0.671505
930	N	0.708682	0.855512	0.671505
931	C	0.822338	0.635539	0.671451
932	N	0.857934	0.653509	0.671451
933	C	0.875969	0.689103	0.671451
934	N	0.858001	0.70673	0.671451
935	C	0.822405	0.689169	0.671451
936	N	0.804778	0.653575	0.671451
937	C	0.710415	0.801176	0.004836
938	C	0.694059	0.765503	0.99182
939	C	0.71257	0.747123	0.991447
940	C	0.748009	0.763663	0.671482
941	C	0.764516	0.799103	0.684857
942	C	0.74609	0.817568	0.684514
943	H	0.790202	0.811814	0.694676
944	H	0.759051	0.843173	0.694606
945	C	0.766699	0.745005	0.671475
946	C	0.778215	0.737778	0.963606
947	C	0.796867	0.719329	0.964144
948	C	0.803984	0.707657	0.671461
949	C	0.792339	0.714793	0.712116
950	C	0.77392	0.733477	0.712674
951	H	0.805195	0.714314	0.934359
952	H	0.797343	0.706448	0.741894
953	H	0.668459	0.75252	0.981715
954	H	0.699882	0.721439	0.981624
955	N	0.762164	0.740369	0.753742
956	N	0.771335	0.749557	0.922545
957	O	0.753092	0.724465	0.896548
958	O	0.741106	0.712547	0.77364
959	O	0.787273	0.758601	0.779726
960	O	0.799166	0.770608	0.902654
961	C	0.710331	0.911542	0.004836
962	C	0.746005	0.93086	0.99182
963	C	0.764386	0.96775	0.991447
964	C	0.747843	0.986649	0.671482
965	C	0.712406	0.967719	0.684857
966	C	0.693939	0.930826	0.684514
967	H	0.699694	0.980692	0.694676
968	H	0.668336	0.918183	0.694606
969	C	0.766504	0.523998	0.671475
970	C	0.773728	0.54274	0.963603
971	C	0.792177	0.579842	0.964144
972	C	0.803852	0.598631	0.671461
973	C	0.796715	0.57985	0.712116
974	C	0.778032	0.542748	0.712674
975	H	0.797195	0.593184	0.934359
976	H	0.805061	0.593197	0.741894
977	H	0.758988	0.918243	0.981718
978	H	0.79007	0.980749	0.981627
979	N	0.771137	0.524097	0.753742
980	N	0.761951	0.524082	0.922545
981	O	0.787043	0.530932	0.896548
982	O	0.798962	0.030863	0.77364
983	O	0.752907	0.530976	0.779726
984	O	0.740899	0.030863	0.902654
985	C	0.599967	0.801092	0.004833
986	C	0.580649	0.817447	0.991813
987	C	0.543757	0.798938	0.991443
988	C	0.524859	0.763498	0.671478
989	C	0.543791	0.746992	0.684854
990	C	0.580683	0.765417	0.68451
991	H	0.530817	0.721305	0.69467
992	H	0.593325	0.752455	0.694602
993	C	0.987509	0.744809	0.671475
994	C	0.968769	0.733294	0.963603
995	C	0.931665	0.714638	0.964144
996	C	0.912876	0.707523	0.671458
997	C	0.931659	0.719169	0.712116
998	C	0.968761	0.737589	0.712671
999	H	0.918322	0.706314	0.934359
1000	H	0.918311	0.714167	0.741894
1001	H	0.593265	0.84305	0.981721
1002	H	0.530761	0.811628	0.981627
1003	N	0.987411	0.749345	0.753739
1004	N	0.987425	0.74017	0.922545
1005	O	0.980575	0.758415	0.896548
1006	O	0.480647	0.770404	0.773637
1007	O	0.980533	0.724237	0.779722
1008	O	0.480644	0.71234	0.902654
