data_C432H468N108_2018-02-15_10:34:04
#******************************************
#
# CIF file created by Zeo++
# Zeo++ is an open source package to
# analyze microporous materials
#
#*******************************************

_cell_length_a		43.477   
_cell_length_b		43.477   
_cell_length_c		30.0114   
_cell_angle_alpha		90   
_cell_angle_beta		90   
_cell_angle_gamma		120   

_symmetry_space_group_name_H-M		'P1'
_symmetry_Int_Tables_number		1
_symmetry_cell_setting		Monoclinic

loop_
_symmetry_equiv_pos_as_xyz
'+x,+y,+z'

loop_
_atom_site_label
_atom_site_type_symbol
_atom_site_fract_x
_atom_site_fract_y
_atom_site_fract_z
1	C	0.185281	0.314417	0.942626
2	C	0.147751	0.295815	0.942333
3	C	0.12876	0.314245	0.942653
4	C	0.147687	0.351772	0.942333
5	C	0.185107	0.370764	0.942636
6	C	0.203708	0.351836	0.942286
7	H	0.134086	0.365331	0.943153
8	H	0.230867	0.365439	0.943139
9	H	0.134195	0.268659	0.943153
10	N	0.205244	0.296886	0.945192
11	H	0.197669	0.278796	0.919638
12	N	0.202642	0.40826	0.945195
13	H	0.220718	0.418772	0.919628
14	N	0.091263	0.294283	0.945205
15	H	0.080754	0.301852	0.919642
16	C	0.316184	0.187158	0.057577
17	C	0.35362	0.203738	0.057772
18	C	0.370592	0.183335	0.057577
19	C	0.349735	0.145899	0.057768
20	C	0.312363	0.128928	0.057577
21	C	0.295781	0.149784	0.057768
22	H	0.361896	0.13094	0.057757
23	H	0.268662	0.137624	0.057757
24	H	0.368581	0.230857	0.057756
25	N	0.298191	0.206689	0.057217
26	H	0.306804	0.224008	0.083687
27	N	0.29283	0.091403	0.057218
28	H	0.275513	0.082696	0.083688
29	N	0.408116	0.201328	0.057219
30	H	0.416822	0.192717	0.083689
31	C	0.254099	0.271413	0.298021
32	C	0.277684	0.258641	0.304728
33	C	0.276042	0.23975	0.343676
34	C	0.250062	0.23434	0.042518
35	C	0.226097	0.247183	0.036675
36	C	0.227787	0.265759	0.996629
37	H	0.256599	0.284985	0.26921
38	H	0.29612	0.263112	0.280614
39	H	0.248328	0.220606	0.070935
40	N	0.202356	0.241013	0.069967
41	H	0.201951	0.228455	0.097029
42	H	0.185493	0.249415	0.068572
43	C	0.202591	0.279205	0.988695
44	H	0.207106	0.298222	0.015325
45	H	0.175532	0.256762	0.991991
46	C	0.301191	0.226022	0.348401
47	H	0.328319	0.248391	0.345299
48	H	0.29628	0.208051	0.320329
49	C	0.228112	0.482585	0.298022
50	C	0.240876	0.018942	0.304733
51	C	0.259774	0.036194	0.34368
52	C	0.265198	0.015628	0.042509
53	C	0.252367	0.478822	0.036662
54	C	0.233782	0.461933	0.996622
55	H	0.214537	0.471513	0.269214
56	H	0.236398	0.032905	0.280622
57	H	0.278945	0.027632	0.07092
58	N	0.258555	0.461256	0.069943
59	H	0.271119	0.473412	0.097001
60	H	0.250165	0.435996	0.068543
61	C	0.220342	0.423293	0.988685
62	H	0.201341	0.408789	0.015328
63	H	0.242792	0.418685	0.991958
64	C	0.273499	0.07507	0.348405
65	H	0.251126	0.079825	0.345303
66	H	0.291465	0.088131	0.320329
67	C	0.016936	0.245427	0.29803
68	C	0.48058	0.221835	0.304738
69	C	0.463326	0.223481	0.343683
70	C	0.483891	0.249471	0.042514
71	C	0.020697	0.273442	0.03667
72	C	0.037588	0.271748	0.996632
73	H	0.02801	0.242923	0.269224
74	H	0.466619	0.203395	0.280627
75	H	0.471886	0.251212	0.070924
76	N	0.038262	0.297196	0.069952
77	H	0.026106	0.297605	0.09701
78	H	0.063525	0.314067	0.068555
79	C	0.076229	0.296947	0.988699
80	H	0.090731	0.292445	0.01534
81	H	0.080839	0.324005	0.991978
82	C	0.424452	0.198329	0.348405
83	H	0.419695	0.171202	0.345306
84	H	0.411389	0.203237	0.32033
85	C	0.185281	0.314417	0.275959
86	C	0.147751	0.295815	0.275668
87	C	0.12876	0.314245	0.275985
88	C	0.147687	0.351772	0.275668
89	C	0.185107	0.370764	0.275969
90	C	0.203708	0.351836	0.27562
91	H	0.134086	0.365331	0.276486
92	H	0.230867	0.365439	0.276475
93	H	0.134195	0.268659	0.276486
94	N	0.205244	0.296886	0.278527
95	H	0.197669	0.278796	0.252974
96	N	0.202642	0.40826	0.278528
97	H	0.220718	0.418772	0.252961
98	N	0.091263	0.294283	0.278541
99	H	0.080754	0.301852	0.252976
100	C	0.316184	0.187158	0.390909
101	C	0.35362	0.203738	0.391105
102	C	0.370592	0.183335	0.390909
103	C	0.349735	0.145899	0.391102
104	C	0.312363	0.128928	0.390909
105	C	0.295781	0.149784	0.391102
106	H	0.361896	0.13094	0.391092
107	H	0.268662	0.137624	0.391089
108	H	0.368581	0.230857	0.391089
109	N	0.298191	0.206689	0.390549
110	H	0.306804	0.224008	0.417019
111	N	0.29283	0.091403	0.390552
112	H	0.275513	0.082696	0.417022
113	N	0.408116	0.201328	0.390552
114	H	0.416822	0.192717	0.417022
115	C	0.254099	0.271413	0.631354
116	C	0.277684	0.258641	0.638062
117	C	0.276042	0.23975	0.67701
118	C	0.250062	0.23434	0.375851
119	C	0.226097	0.247183	0.37001
120	C	0.227787	0.265759	0.329964
121	H	0.256599	0.284985	0.602542
122	H	0.29612	0.263112	0.613947
123	H	0.248328	0.220606	0.40427
124	N	0.202356	0.241013	0.403301
125	H	0.201951	0.228455	0.43036
126	H	0.185493	0.249415	0.401904
127	C	0.202591	0.279205	0.32203
128	H	0.207106	0.298222	0.348658
129	H	0.175532	0.256762	0.325326
130	C	0.301191	0.226022	0.681735
131	H	0.328319	0.248391	0.678633
132	H	0.29628	0.208051	0.653662
133	C	0.228112	0.482585	0.631354
134	C	0.240876	0.018942	0.638065
135	C	0.259774	0.036194	0.67701
136	C	0.265198	0.015628	0.375841
137	C	0.252367	0.478822	0.369993
138	C	0.233782	0.461933	0.329956
139	H	0.214537	0.471513	0.602548
140	H	0.236398	0.032905	0.613954
141	H	0.278945	0.027632	0.404254
142	N	0.258555	0.461256	0.403277
143	H	0.271119	0.473412	0.430334
144	H	0.250165	0.435996	0.401878
145	C	0.220342	0.423293	0.32202
146	H	0.201341	0.408789	0.348661
147	H	0.242792	0.418685	0.325292
148	C	0.273499	0.07507	0.681735
149	H	0.251126	0.079825	0.678636
150	H	0.291465	0.088131	0.653662
151	C	0.016936	0.245427	0.631364
152	C	0.48058	0.221835	0.638072
153	C	0.463326	0.223481	0.677014
154	C	0.483891	0.249471	0.375848
155	C	0.020697	0.273442	0.370003
156	C	0.037588	0.271748	0.329966
157	H	0.02801	0.242923	0.602555
158	H	0.466619	0.203395	0.613961
159	H	0.471886	0.251212	0.404257
160	N	0.038262	0.297196	0.403284
161	H	0.026106	0.297605	0.430344
162	H	0.063525	0.314067	0.401888
163	C	0.076229	0.296947	0.322033
164	H	0.090731	0.292445	0.348675
165	H	0.080839	0.324005	0.32531
166	C	0.424452	0.198329	0.681738
167	H	0.419695	0.171202	0.678636
168	H	0.411389	0.203237	0.653662
169	C	0.185281	0.314417	0.609293
170	C	0.147751	0.295815	0.609003
171	C	0.12876	0.314245	0.609319
172	C	0.147687	0.351772	0.609003
173	C	0.185107	0.370764	0.609303
174	C	0.203708	0.351836	0.608953
175	H	0.134086	0.365331	0.609819
176	H	0.230867	0.365439	0.609809
177	H	0.134195	0.268659	0.609819
178	N	0.205244	0.296886	0.611858
179	H	0.197669	0.278796	0.586308
180	N	0.202642	0.40826	0.611862
181	H	0.220718	0.418772	0.586295
182	N	0.091263	0.294283	0.611875
183	H	0.080754	0.301852	0.586308
184	C	0.316184	0.187158	0.724242
185	C	0.35362	0.203738	0.724439
186	C	0.370592	0.183335	0.724242
187	C	0.349735	0.145899	0.724432
188	C	0.312363	0.128928	0.724242
189	C	0.295781	0.149784	0.724432
190	H	0.361896	0.13094	0.724422
191	H	0.268662	0.137624	0.724422
192	H	0.368581	0.230857	0.724422
193	N	0.298191	0.206689	0.723882
194	H	0.306804	0.224008	0.750352
195	N	0.29283	0.091403	0.723882
196	H	0.275513	0.082696	0.750352
197	N	0.408116	0.201328	0.723886
198	H	0.416822	0.192717	0.750356
199	C	0.254099	0.271413	0.964688
200	C	0.277684	0.258641	0.971395
201	C	0.276042	0.23975	0.010345
202	C	0.250062	0.23434	0.709185
203	C	0.226097	0.247183	0.70334
204	C	0.227787	0.265759	0.663295
205	H	0.256599	0.284985	0.935875
206	H	0.29612	0.263112	0.947278
207	H	0.248328	0.220606	0.737601
208	N	0.202356	0.241013	0.736634
209	H	0.201951	0.228455	0.763694
210	H	0.185493	0.249415	0.735238
211	C	0.202591	0.279205	0.655362
212	H	0.207106	0.298222	0.681992
213	H	0.175532	0.256762	0.65866
214	C	0.301191	0.226022	0.015069
215	H	0.328319	0.248391	0.011966
216	H	0.29628	0.208051	0.986996
217	C	0.228112	0.482585	0.964688
218	C	0.240876	0.018942	0.971399
219	C	0.259774	0.036194	0.010345
220	C	0.265198	0.015628	0.709175
221	C	0.252367	0.478822	0.703327
222	C	0.233782	0.461933	0.663289
223	H	0.214537	0.471513	0.935879
224	H	0.236398	0.032905	0.947288
225	H	0.278945	0.027632	0.737587
226	N	0.258555	0.461256	0.736608
227	H	0.271119	0.473412	0.763667
228	H	0.250165	0.435996	0.735208
229	C	0.220342	0.423293	0.655352
230	H	0.201341	0.408789	0.681995
231	H	0.242792	0.418685	0.658624
232	C	0.273499	0.07507	0.01507
233	H	0.251126	0.079825	0.011971
234	H	0.291465	0.088131	0.986996
235	C	0.016936	0.245427	0.964695
236	C	0.48058	0.221835	0.971405
237	C	0.463326	0.223481	0.010349
238	C	0.483891	0.249471	0.709181
239	C	0.020697	0.273442	0.703337
240	C	0.037588	0.271748	0.663299
241	H	0.02801	0.242923	0.935889
242	H	0.466619	0.203395	0.947291
243	H	0.471886	0.251212	0.737591
244	N	0.038262	0.297196	0.736618
245	H	0.026106	0.297605	0.763674
246	H	0.063525	0.314067	0.735221
247	C	0.076229	0.296947	0.655365
248	H	0.090731	0.292445	0.682005
249	H	0.080839	0.324005	0.658644
250	C	0.424452	0.198329	0.015072
251	H	0.419695	0.171202	0.011972
252	H	0.411389	0.203237	0.986996
253	C	0.185281	0.814417	0.942626
254	C	0.14775	0.795815	0.942333
255	C	0.128759	0.814244	0.942653
256	C	0.147688	0.851772	0.942333
257	C	0.185107	0.870764	0.942636
258	C	0.203708	0.851836	0.942286
259	H	0.134087	0.86533	0.943153
260	H	0.230866	0.865439	0.943139
261	H	0.134195	0.768659	0.943153
262	N	0.205244	0.796886	0.945192
263	H	0.197669	0.778796	0.919638
264	N	0.202643	0.90826	0.945195
265	H	0.220717	0.918772	0.919628
266	N	0.091262	0.794283	0.945205
267	H	0.080754	0.801852	0.919642
268	C	0.316184	0.687158	0.057577
269	C	0.353621	0.703738	0.057772
270	C	0.370592	0.683336	0.057577
271	C	0.349735	0.645898	0.057768
272	C	0.312361	0.628927	0.057577
273	C	0.295781	0.649784	0.057768
274	H	0.361896	0.63094	0.057757
275	H	0.268662	0.637623	0.057757
276	H	0.36858	0.730858	0.057756
277	N	0.298191	0.706689	0.057217
278	H	0.306804	0.724008	0.083687
279	N	0.29283	0.591402	0.057218
280	H	0.275512	0.582696	0.083688
281	N	0.408115	0.701327	0.057219
282	H	0.416822	0.692716	0.083689
283	C	0.254098	0.771413	0.298021
284	C	0.277684	0.758641	0.304728
285	C	0.276042	0.739749	0.343676
286	C	0.250062	0.734339	0.042518
287	C	0.226097	0.747183	0.036675
288	C	0.227787	0.765759	0.996629
289	H	0.256599	0.784985	0.26921
290	H	0.296121	0.763113	0.280614
291	H	0.248328	0.720606	0.070935
292	N	0.202356	0.741014	0.069967
293	H	0.201951	0.728454	0.097029
294	H	0.185493	0.749414	0.068572
295	C	0.202591	0.779205	0.988695
296	H	0.207106	0.798221	0.015325
297	H	0.175533	0.756763	0.991991
298	C	0.30119	0.726021	0.348401
299	H	0.328319	0.748392	0.345299
300	H	0.29628	0.708051	0.320329
301	C	0.228112	0.982585	0.298022
302	C	0.240876	0.518942	0.304733
303	C	0.259774	0.536194	0.34368
304	C	0.265199	0.515627	0.042509
305	C	0.252366	0.978822	0.036662
306	C	0.233781	0.961933	0.996622
307	H	0.214537	0.971513	0.269214
308	H	0.236398	0.532904	0.280622
309	H	0.278944	0.527632	0.07092
310	N	0.258555	0.961256	0.069943
311	H	0.271119	0.973412	0.097001
312	H	0.250163	0.935993	0.068543
313	C	0.220342	0.923292	0.988685
314	H	0.201341	0.908789	0.015328
315	H	0.242792	0.918685	0.991958
316	C	0.273497	0.575069	0.348405
317	H	0.251125	0.579825	0.345303
318	H	0.291466	0.58813	0.320329
319	C	0.016937	0.745428	0.29803
320	C	0.480581	0.721836	0.304738
321	C	0.463326	0.72348	0.343683
322	C	0.483891	0.74947	0.042515
323	C	0.020698	0.773442	0.03667
324	C	0.037588	0.771748	0.996632
325	H	0.028011	0.742923	0.269224
326	H	0.466619	0.703396	0.280627
327	H	0.471887	0.751212	0.070924
328	N	0.038263	0.797196	0.069952
329	H	0.026107	0.797605	0.09701
330	H	0.063525	0.814066	0.068555
331	C	0.076229	0.796947	0.988699
332	H	0.09073	0.792445	0.01534
333	H	0.080839	0.824005	0.991978
334	C	0.42445	0.698328	0.348405
335	H	0.419694	0.671201	0.345306
336	H	0.41139	0.703236	0.32033
337	C	0.185281	0.814417	0.275959
338	C	0.14775	0.795815	0.275668
339	C	0.128759	0.814244	0.275986
340	C	0.147688	0.851772	0.275668
341	C	0.185107	0.870764	0.275969
342	C	0.203708	0.851836	0.27562
343	H	0.134087	0.86533	0.276486
344	H	0.230866	0.865439	0.276475
345	H	0.134195	0.768659	0.276486
346	N	0.205244	0.796886	0.278527
347	H	0.197669	0.778796	0.252974
348	N	0.202643	0.90826	0.278528
349	H	0.220717	0.918772	0.252961
350	N	0.091262	0.794283	0.278541
351	H	0.080754	0.801852	0.252976
352	C	0.316184	0.687158	0.390909
353	C	0.353621	0.703738	0.391105
354	C	0.370592	0.683336	0.390909
355	C	0.349735	0.645898	0.391102
356	C	0.312361	0.628927	0.390909
357	C	0.295781	0.649784	0.391102
358	H	0.361896	0.63094	0.391092
359	H	0.268662	0.637623	0.391089
360	H	0.36858	0.730858	0.391089
361	N	0.298191	0.706689	0.390549
362	H	0.306804	0.724008	0.417019
363	N	0.29283	0.591402	0.390552
364	H	0.275512	0.582696	0.417022
365	N	0.408115	0.701327	0.390552
366	H	0.416822	0.692716	0.417022
367	C	0.254098	0.771413	0.631354
368	C	0.277684	0.758641	0.638062
369	C	0.276042	0.739749	0.67701
370	C	0.250062	0.734339	0.375851
371	C	0.226097	0.747183	0.37001
372	C	0.227787	0.765759	0.329964
373	H	0.256599	0.784985	0.602542
374	H	0.296121	0.763113	0.613947
375	H	0.248328	0.720606	0.40427
376	N	0.202356	0.741014	0.403301
377	H	0.201951	0.728454	0.43036
378	H	0.185493	0.749414	0.401904
379	C	0.202591	0.779205	0.32203
380	H	0.207106	0.798221	0.348658
381	H	0.175533	0.756763	0.325326
382	C	0.30119	0.726021	0.681735
383	H	0.328319	0.748392	0.678633
384	H	0.29628	0.708051	0.653662
385	C	0.228112	0.982585	0.631354
386	C	0.240876	0.518942	0.638065
387	C	0.259774	0.536194	0.67701
388	C	0.265199	0.515627	0.375841
389	C	0.252366	0.978822	0.369993
390	C	0.233781	0.961933	0.329956
391	H	0.214537	0.971513	0.602548
392	H	0.236398	0.532904	0.613954
393	H	0.278944	0.527632	0.404254
394	N	0.258555	0.961256	0.403277
395	H	0.271119	0.973412	0.430334
396	H	0.250163	0.935993	0.401878
397	C	0.220342	0.923292	0.32202
398	H	0.201341	0.908789	0.348661
399	H	0.242792	0.918685	0.325292
400	C	0.273497	0.575069	0.681735
401	H	0.251125	0.579825	0.678636
402	H	0.291466	0.58813	0.653662
403	C	0.016937	0.745428	0.631364
404	C	0.480581	0.721836	0.638072
405	C	0.463326	0.72348	0.677014
406	C	0.483891	0.74947	0.375848
407	C	0.020698	0.773442	0.370003
408	C	0.037588	0.771748	0.329966
409	H	0.028011	0.742923	0.602555
410	H	0.466619	0.703396	0.613961
411	H	0.471887	0.751212	0.404257
412	N	0.038263	0.797196	0.403284
413	H	0.026107	0.797605	0.430344
414	H	0.063525	0.814066	0.401888
415	C	0.076229	0.796947	0.322033
416	H	0.09073	0.792445	0.348675
417	H	0.080839	0.824005	0.32531
418	C	0.42445	0.698328	0.681738
419	H	0.419694	0.671201	0.678636
420	H	0.41139	0.703236	0.653662
421	C	0.185281	0.814417	0.609293
422	C	0.14775	0.795815	0.609003
423	C	0.128759	0.814244	0.609319
424	C	0.147688	0.851772	0.609003
425	C	0.185107	0.870764	0.609303
426	C	0.203708	0.851836	0.608953
427	H	0.134087	0.86533	0.609819
428	H	0.230866	0.865439	0.609809
429	H	0.134195	0.768659	0.609819
430	N	0.205244	0.796886	0.611858
431	H	0.197669	0.778796	0.586308
432	N	0.202643	0.90826	0.611862
433	H	0.220717	0.918772	0.586295
434	N	0.091262	0.794283	0.611875
435	H	0.080754	0.801852	0.586308
436	C	0.316184	0.687158	0.724242
437	C	0.353621	0.703738	0.724439
438	C	0.370592	0.683336	0.724242
439	C	0.349735	0.645898	0.724432
440	C	0.312361	0.628927	0.724242
441	C	0.295781	0.649784	0.724432
442	H	0.361896	0.63094	0.724422
443	H	0.268662	0.637623	0.724422
444	H	0.36858	0.730858	0.724422
445	N	0.298191	0.706689	0.723882
446	H	0.306804	0.724008	0.750352
447	N	0.29283	0.591402	0.723882
448	H	0.275512	0.582696	0.750352
449	N	0.408115	0.701327	0.723886
450	H	0.416822	0.692716	0.750356
451	C	0.254098	0.771413	0.964688
452	C	0.277684	0.758641	0.971395
453	C	0.276042	0.739749	0.010345
454	C	0.250062	0.734339	0.709185
455	C	0.226097	0.747183	0.70334
456	C	0.227787	0.765759	0.663295
457	H	0.256599	0.784985	0.935875
458	H	0.296121	0.763113	0.947278
459	H	0.248328	0.720606	0.737601
460	N	0.202356	0.741014	0.736634
461	H	0.201951	0.728454	0.763694
462	H	0.185493	0.749414	0.735238
463	C	0.202591	0.779205	0.655362
464	H	0.207106	0.798221	0.681992
465	H	0.175533	0.756763	0.65866
466	C	0.30119	0.726021	0.015069
467	H	0.328319	0.748392	0.011966
468	H	0.29628	0.708051	0.986996
469	C	0.228112	0.982585	0.964688
470	C	0.240876	0.518942	0.971399
471	C	0.259774	0.536194	0.010345
472	C	0.265199	0.515627	0.709175
473	C	0.252366	0.978822	0.703327
474	C	0.233781	0.961933	0.663289
475	H	0.214537	0.971513	0.935879
476	H	0.236398	0.532904	0.947288
477	H	0.278944	0.527632	0.737587
478	N	0.258555	0.961256	0.736608
479	H	0.271119	0.973412	0.763667
480	H	0.250163	0.935993	0.735208
481	C	0.220342	0.923292	0.655352
482	H	0.201341	0.908789	0.681995
483	H	0.242792	0.918685	0.658624
484	C	0.273497	0.575069	0.01507
485	H	0.251125	0.579825	0.011971
486	H	0.291466	0.58813	0.986996
487	C	0.016937	0.745428	0.964695
488	C	0.480581	0.721836	0.971405
489	C	0.463326	0.72348	0.010349
490	C	0.483891	0.74947	0.709181
491	C	0.020698	0.773442	0.703337
492	C	0.037588	0.771748	0.663299
493	H	0.028011	0.742923	0.935889
494	H	0.466619	0.703396	0.947291
495	H	0.471887	0.751212	0.737591
496	N	0.038263	0.797196	0.736618
497	H	0.026107	0.797605	0.763674
498	H	0.063525	0.814066	0.735221
499	C	0.076229	0.796947	0.655365
500	H	0.09073	0.792445	0.682005
501	H	0.080839	0.824005	0.658644
502	C	0.42445	0.698328	0.015072
503	H	0.419694	0.671201	0.011972
504	H	0.41139	0.703236	0.986996
505	C	0.685281	0.314417	0.942626
506	C	0.647751	0.295815	0.942333
507	C	0.62876	0.314245	0.942653
508	C	0.647687	0.351772	0.942333
509	C	0.685106	0.370764	0.942636
510	C	0.703707	0.351836	0.942286
511	H	0.634088	0.365331	0.943153
512	H	0.730867	0.365439	0.943139
513	H	0.634196	0.268659	0.943153
514	N	0.705243	0.296886	0.945192
515	H	0.69767	0.278796	0.919638
516	N	0.702642	0.40826	0.945195
517	H	0.720719	0.418772	0.919628
518	N	0.591264	0.294283	0.945205
519	H	0.580753	0.301852	0.919642
520	C	0.816184	0.187158	0.057577
521	C	0.85362	0.203738	0.057772
522	C	0.870592	0.183335	0.057577
523	C	0.849735	0.145899	0.057768
524	C	0.812363	0.128928	0.057577
525	C	0.795781	0.149784	0.057768
526	H	0.861896	0.13094	0.057757
527	H	0.768662	0.137624	0.057757
528	H	0.868581	0.230857	0.057756
529	N	0.798193	0.206689	0.057217
530	H	0.806804	0.224008	0.083687
531	N	0.79283	0.091403	0.057218
532	H	0.775513	0.082696	0.083688
533	N	0.908116	0.201328	0.057219
534	H	0.916822	0.192717	0.083689
535	C	0.754098	0.271413	0.298021
536	C	0.777684	0.258641	0.304728
537	C	0.776042	0.23975	0.343676
538	C	0.750063	0.23434	0.042518
539	C	0.726096	0.247183	0.036675
540	C	0.727787	0.265759	0.996629
541	H	0.756599	0.284985	0.26921
542	H	0.796121	0.263112	0.280614
543	H	0.748328	0.220606	0.070935
544	N	0.702357	0.241013	0.069967
545	H	0.701952	0.228455	0.097029
546	H	0.685494	0.249415	0.068572
547	C	0.702592	0.279205	0.988695
548	H	0.707107	0.298222	0.015325
549	H	0.675532	0.256762	0.991991
550	C	0.801191	0.226022	0.348401
551	H	0.82832	0.248391	0.345299
552	H	0.796279	0.208051	0.320329
553	C	0.728113	0.482585	0.298022
554	C	0.740876	0.018942	0.304733
555	C	0.759774	0.036194	0.34368
556	C	0.765198	0.015628	0.042509
557	C	0.752367	0.478822	0.036662
558	C	0.733782	0.461933	0.996622
559	H	0.714536	0.471513	0.269214
560	H	0.736398	0.032905	0.280622
561	H	0.778945	0.027632	0.07092
562	N	0.758555	0.461256	0.069943
563	H	0.77112	0.473412	0.097001
564	H	0.750164	0.435996	0.068543
565	C	0.720343	0.423293	0.988685
566	H	0.70134	0.408789	0.015328
567	H	0.742792	0.418685	0.991958
568	C	0.773499	0.07507	0.348405
569	H	0.751125	0.079825	0.345303
570	H	0.791465	0.088131	0.320329
571	C	0.516935	0.245427	0.29803
572	C	0.98058	0.221835	0.304738
573	C	0.963326	0.223481	0.343683
574	C	0.983891	0.249471	0.042514
575	C	0.520697	0.273442	0.03667
576	C	0.537587	0.271748	0.996632
577	H	0.52801	0.242923	0.269224
578	H	0.966619	0.203395	0.280627
579	H	0.971888	0.251212	0.070924
580	N	0.538262	0.297196	0.069952
581	H	0.526106	0.297605	0.09701
582	H	0.563526	0.314067	0.068555
583	C	0.576231	0.296947	0.988699
584	H	0.590731	0.292445	0.01534
585	H	0.58084	0.324005	0.991978
586	C	0.924452	0.198329	0.348405
587	H	0.919695	0.171202	0.345306
588	H	0.911392	0.203237	0.32033
589	C	0.685281	0.314417	0.275959
590	C	0.647751	0.295815	0.275668
591	C	0.62876	0.314245	0.275985
592	C	0.647687	0.351772	0.275668
593	C	0.685106	0.370764	0.275969
594	C	0.703707	0.351836	0.27562
595	H	0.634088	0.365331	0.276486
596	H	0.730867	0.365439	0.276475
597	H	0.634196	0.268659	0.276486
598	N	0.705243	0.296886	0.278527
599	H	0.69767	0.278796	0.252974
600	N	0.702642	0.40826	0.278528
601	H	0.720719	0.418772	0.252961
602	N	0.591264	0.294283	0.278541
603	H	0.580753	0.301852	0.252976
604	C	0.816184	0.187158	0.390909
605	C	0.85362	0.203738	0.391105
606	C	0.870592	0.183335	0.390909
607	C	0.849735	0.145899	0.391102
608	C	0.812363	0.128928	0.390909
609	C	0.795781	0.149784	0.391102
610	H	0.861896	0.13094	0.391092
611	H	0.768662	0.137624	0.391089
612	H	0.868581	0.230857	0.391089
613	N	0.798193	0.206689	0.390549
614	H	0.806804	0.224008	0.417019
615	N	0.79283	0.091403	0.390552
616	H	0.775513	0.082696	0.417022
617	N	0.908116	0.201328	0.390552
618	H	0.916822	0.192717	0.417022
619	C	0.754098	0.271413	0.631354
620	C	0.777684	0.258641	0.638062
621	C	0.776042	0.23975	0.67701
622	C	0.750063	0.23434	0.375851
623	C	0.726096	0.247183	0.37001
624	C	0.727787	0.265759	0.329964
625	H	0.756599	0.284985	0.602542
626	H	0.796121	0.263112	0.613947
627	H	0.748328	0.220606	0.40427
628	N	0.702357	0.241013	0.403301
629	H	0.701952	0.228455	0.43036
630	H	0.685494	0.249415	0.401904
631	C	0.702592	0.279205	0.32203
632	H	0.707107	0.298222	0.348658
633	H	0.675532	0.256762	0.325326
634	C	0.801191	0.226022	0.681735
635	H	0.82832	0.248391	0.678633
636	H	0.796279	0.208051	0.653662
637	C	0.728113	0.482585	0.631354
638	C	0.740876	0.018942	0.638065
639	C	0.759774	0.036194	0.67701
640	C	0.765198	0.015628	0.375841
641	C	0.752367	0.478822	0.369993
642	C	0.733782	0.461933	0.329956
643	H	0.714536	0.471513	0.602548
644	H	0.736398	0.032905	0.613954
645	H	0.778945	0.027632	0.404254
646	N	0.758555	0.461256	0.403277
647	H	0.77112	0.473412	0.430334
648	H	0.750164	0.435996	0.401878
649	C	0.720343	0.423293	0.32202
650	H	0.70134	0.408789	0.348661
651	H	0.742792	0.418685	0.325292
652	C	0.773499	0.07507	0.681735
653	H	0.751125	0.079825	0.678636
654	H	0.791465	0.088131	0.653662
655	C	0.516935	0.245427	0.631364
656	C	0.98058	0.221835	0.638072
657	C	0.963326	0.223481	0.677014
658	C	0.983891	0.249471	0.375848
659	C	0.520697	0.273442	0.370003
660	C	0.537587	0.271748	0.329966
661	H	0.52801	0.242923	0.602555
662	H	0.966619	0.203395	0.613961
663	H	0.971888	0.251212	0.404257
664	N	0.538262	0.297196	0.403284
665	H	0.526106	0.297605	0.430344
666	H	0.563526	0.314067	0.401888
667	C	0.576231	0.296947	0.322033
668	H	0.590731	0.292445	0.348675
669	H	0.58084	0.324005	0.32531
670	C	0.924452	0.198329	0.681738
671	H	0.919695	0.171202	0.678636
672	H	0.911392	0.203237	0.653662
673	C	0.685281	0.314417	0.609293
674	C	0.647751	0.295815	0.609003
675	C	0.62876	0.314245	0.609319
676	C	0.647687	0.351772	0.609003
677	C	0.685106	0.370764	0.609303
678	C	0.703707	0.351836	0.608953
679	H	0.634088	0.365331	0.609819
680	H	0.730867	0.365439	0.609809
681	H	0.634196	0.268659	0.609819
682	N	0.705243	0.296886	0.611858
683	H	0.69767	0.278796	0.586308
684	N	0.702642	0.40826	0.611862
685	H	0.720719	0.418772	0.586295
686	N	0.591264	0.294283	0.611875
687	H	0.580753	0.301852	0.586308
688	C	0.816184	0.187158	0.724242
689	C	0.85362	0.203738	0.724439
690	C	0.870592	0.183335	0.724242
691	C	0.849735	0.145899	0.724432
692	C	0.812363	0.128928	0.724242
693	C	0.795781	0.149784	0.724432
694	H	0.861896	0.13094	0.724422
695	H	0.768662	0.137624	0.724422
696	H	0.868581	0.230857	0.724422
697	N	0.798193	0.206689	0.723882
698	H	0.806804	0.224008	0.750352
699	N	0.79283	0.091403	0.723882
700	H	0.775513	0.082696	0.750352
701	N	0.908116	0.201328	0.723886
702	H	0.916822	0.192717	0.750356
703	C	0.754098	0.271413	0.964688
704	C	0.777684	0.258641	0.971395
705	C	0.776042	0.23975	0.010345
706	C	0.750063	0.23434	0.709185
707	C	0.726096	0.247183	0.70334
708	C	0.727787	0.265759	0.663295
709	H	0.756599	0.284985	0.935875
710	H	0.796121	0.263112	0.947278
711	H	0.748328	0.220606	0.737601
712	N	0.702357	0.241013	0.736634
713	H	0.701952	0.228455	0.763694
714	H	0.685494	0.249415	0.735238
715	C	0.702592	0.279205	0.655362
716	H	0.707107	0.298222	0.681992
717	H	0.675532	0.256762	0.65866
718	C	0.801191	0.226022	0.015069
719	H	0.82832	0.248391	0.011966
720	H	0.796279	0.208051	0.986996
721	C	0.728113	0.482585	0.964688
722	C	0.740876	0.018942	0.971399
723	C	0.759774	0.036194	0.010345
724	C	0.765198	0.015628	0.709175
725	C	0.752367	0.478822	0.703327
726	C	0.733782	0.461933	0.663289
727	H	0.714536	0.471513	0.935879
728	H	0.736398	0.032905	0.947288
729	H	0.778945	0.027632	0.737587
730	N	0.758555	0.461256	0.736608
731	H	0.77112	0.473412	0.763667
732	H	0.750164	0.435996	0.735208
733	C	0.720343	0.423293	0.655352
734	H	0.70134	0.408789	0.681995
735	H	0.742792	0.418685	0.658624
736	C	0.773499	0.07507	0.01507
737	H	0.751125	0.079825	0.011971
738	H	0.791465	0.088131	0.986996
739	C	0.516935	0.245427	0.964695
740	C	0.98058	0.221835	0.971405
741	C	0.963326	0.223481	0.010349
742	C	0.983891	0.249471	0.709181
743	C	0.520697	0.273442	0.703337
744	C	0.537587	0.271748	0.663299
745	H	0.52801	0.242923	0.935889
746	H	0.966619	0.203395	0.947291
747	H	0.971888	0.251212	0.737591
748	N	0.538262	0.297196	0.736618
749	H	0.526106	0.297605	0.763674
750	H	0.563526	0.314067	0.735221
751	C	0.576231	0.296947	0.655365
752	H	0.590731	0.292445	0.682005
753	H	0.58084	0.324005	0.658644
754	C	0.924452	0.198329	0.015072
755	H	0.919695	0.171202	0.011972
756	H	0.911392	0.203237	0.986996
757	C	0.685282	0.814417	0.942626
758	C	0.64775	0.795815	0.942333
759	C	0.62876	0.814244	0.942653
760	C	0.647687	0.851772	0.942333
761	C	0.685107	0.870764	0.942636
762	C	0.703708	0.851836	0.942286
763	H	0.634087	0.86533	0.943153
764	H	0.730866	0.865439	0.943139
765	H	0.634195	0.768659	0.943153
766	N	0.705244	0.796886	0.945192
767	H	0.697669	0.778796	0.919638
768	N	0.702643	0.90826	0.945195
769	H	0.720717	0.918772	0.919628
770	N	0.591263	0.794283	0.945205
771	H	0.580754	0.801852	0.919642
772	C	0.816185	0.687158	0.057577
773	C	0.853622	0.703738	0.057772
774	C	0.870591	0.683336	0.057577
775	C	0.849736	0.645898	0.057768
776	C	0.812361	0.628927	0.057577
777	C	0.795782	0.649784	0.057768
778	H	0.861897	0.63094	0.057757
779	H	0.768661	0.637623	0.057757
780	H	0.86858	0.730858	0.057756
781	N	0.798191	0.706689	0.057217
782	H	0.806805	0.724008	0.083687
783	N	0.792831	0.591402	0.057218
784	H	0.775512	0.582696	0.083688
785	N	0.908114	0.701327	0.057219
786	H	0.916823	0.692716	0.083689
787	C	0.754099	0.771413	0.298021
788	C	0.777683	0.758641	0.304728
789	C	0.776041	0.739749	0.343676
790	C	0.750062	0.734339	0.042518
791	C	0.726098	0.747183	0.036675
792	C	0.727788	0.765759	0.996629
793	H	0.7566	0.784985	0.26921
794	H	0.796121	0.763113	0.280614
795	H	0.748329	0.720606	0.070935
796	N	0.702356	0.741014	0.069967
797	H	0.70195	0.728454	0.097029
798	H	0.685492	0.749414	0.068572
799	C	0.702591	0.779205	0.988695
800	H	0.707106	0.798221	0.015325
801	H	0.675534	0.756763	0.991991
802	C	0.801189	0.726021	0.348401
803	H	0.828319	0.748392	0.345299
804	H	0.79628	0.708051	0.320329
805	C	0.728112	0.982585	0.298022
806	C	0.740877	0.518942	0.304733
807	C	0.759773	0.536194	0.34368
808	C	0.765199	0.515627	0.042509
809	C	0.752366	0.978822	0.036662
810	C	0.733781	0.961933	0.996622
811	H	0.714537	0.971513	0.269214
812	H	0.736397	0.532904	0.280622
813	H	0.778943	0.527632	0.07092
814	N	0.758554	0.961256	0.069943
815	H	0.771118	0.973412	0.097001
816	H	0.750164	0.935993	0.068543
817	C	0.720342	0.923292	0.988685
818	H	0.701341	0.908789	0.015328
819	H	0.742793	0.918685	0.991958
820	C	0.773497	0.575069	0.348405
821	H	0.751127	0.579825	0.345303
822	H	0.791466	0.58813	0.320329
823	C	0.516937	0.745428	0.29803
824	C	0.980581	0.721836	0.304738
825	C	0.963327	0.72348	0.343683
826	C	0.983892	0.74947	0.042515
827	C	0.520697	0.773442	0.03667
828	C	0.537588	0.771748	0.996632
829	H	0.528011	0.742923	0.269224
830	H	0.966618	0.703396	0.280627
831	H	0.971887	0.751212	0.070924
832	N	0.538262	0.797196	0.069952
833	H	0.526106	0.797605	0.09701
834	H	0.563525	0.814066	0.068555
835	C	0.576229	0.796947	0.988699
836	H	0.590731	0.792445	0.01534
837	H	0.580839	0.824005	0.991978
838	C	0.92445	0.698328	0.348405
839	H	0.919693	0.671201	0.345306
840	H	0.91139	0.703236	0.32033
841	C	0.685282	0.814417	0.275959
842	C	0.64775	0.795815	0.275668
843	C	0.62876	0.814244	0.275986
844	C	0.647687	0.851772	0.275668
845	C	0.685107	0.870764	0.275969
846	C	0.703708	0.851836	0.27562
847	H	0.634087	0.86533	0.276486
848	H	0.730866	0.865439	0.276475
849	H	0.634195	0.768659	0.276486
850	N	0.705244	0.796886	0.278527
851	H	0.697669	0.778796	0.252974
852	N	0.702643	0.90826	0.278528
853	H	0.720717	0.918772	0.252961
854	N	0.591263	0.794283	0.278541
855	H	0.580754	0.801852	0.252976
856	C	0.816185	0.687158	0.390909
857	C	0.853622	0.703738	0.391105
858	C	0.870591	0.683336	0.390909
859	C	0.849736	0.645898	0.391102
860	C	0.812361	0.628927	0.390909
861	C	0.795782	0.649784	0.391102
862	H	0.861897	0.63094	0.391092
863	H	0.768661	0.637623	0.391089
864	H	0.86858	0.730858	0.391089
865	N	0.798191	0.706689	0.390549
866	H	0.806805	0.724008	0.417019
867	N	0.792831	0.591402	0.390552
868	H	0.775512	0.582696	0.417022
869	N	0.908114	0.701327	0.390552
870	H	0.916823	0.692716	0.417022
871	C	0.754099	0.771413	0.631354
872	C	0.777683	0.758641	0.638062
873	C	0.776041	0.739749	0.67701
874	C	0.750062	0.734339	0.375851
875	C	0.726098	0.747183	0.37001
876	C	0.727788	0.765759	0.329964
877	H	0.7566	0.784985	0.602542
878	H	0.796121	0.763113	0.613947
879	H	0.748329	0.720606	0.40427
880	N	0.702356	0.741014	0.403301
881	H	0.70195	0.728454	0.43036
882	H	0.685492	0.749414	0.401904
883	C	0.702591	0.779205	0.32203
884	H	0.707106	0.798221	0.348658
885	H	0.675534	0.756763	0.325326
886	C	0.801189	0.726021	0.681735
887	H	0.828319	0.748392	0.678633
888	H	0.79628	0.708051	0.653662
889	C	0.728112	0.982585	0.631354
890	C	0.740877	0.518942	0.638065
891	C	0.759773	0.536194	0.67701
892	C	0.765199	0.515627	0.375841
893	C	0.752366	0.978822	0.369993
894	C	0.733781	0.961933	0.329956
895	H	0.714537	0.971513	0.602548
896	H	0.736397	0.532904	0.613954
897	H	0.778943	0.527632	0.404254
898	N	0.758554	0.961256	0.403277
899	H	0.771118	0.973412	0.430334
900	H	0.750164	0.935993	0.401878
901	C	0.720342	0.923292	0.32202
902	H	0.701341	0.908789	0.348661
903	H	0.742793	0.918685	0.325292
904	C	0.773497	0.575069	0.681735
905	H	0.751127	0.579825	0.678636
906	H	0.791466	0.58813	0.653662
907	C	0.516937	0.745428	0.631364
908	C	0.980581	0.721836	0.638072
909	C	0.963327	0.72348	0.677014
910	C	0.983892	0.74947	0.375848
911	C	0.520697	0.773442	0.370003
912	C	0.537588	0.771748	0.329966
913	H	0.528011	0.742923	0.602555
914	H	0.966618	0.703396	0.613961
915	H	0.971887	0.751212	0.404257
916	N	0.538262	0.797196	0.403284
917	H	0.526106	0.797605	0.430344
918	H	0.563525	0.814066	0.401888
919	C	0.576229	0.796947	0.322033
920	H	0.590731	0.792445	0.348675
921	H	0.580839	0.824005	0.32531
922	C	0.92445	0.698328	0.681738
923	H	0.919693	0.671201	0.678636
924	H	0.91139	0.703236	0.653662
925	C	0.685282	0.814417	0.609293
926	C	0.64775	0.795815	0.609003
927	C	0.62876	0.814244	0.609319
928	C	0.647687	0.851772	0.609003
929	C	0.685107	0.870764	0.609303
930	C	0.703708	0.851836	0.608953
931	H	0.634087	0.86533	0.609819
932	H	0.730866	0.865439	0.609809
933	H	0.634195	0.768659	0.609819
934	N	0.705244	0.796886	0.611858
935	H	0.697669	0.778796	0.586308
936	N	0.702643	0.90826	0.611862
937	H	0.720717	0.918772	0.586295
938	N	0.591263	0.794283	0.611875
939	H	0.580754	0.801852	0.586308
940	C	0.816185	0.687158	0.724242
941	C	0.853622	0.703738	0.724439
942	C	0.870591	0.683336	0.724242
943	C	0.849736	0.645898	0.724432
944	C	0.812361	0.628927	0.724242
945	C	0.795782	0.649784	0.724432
946	H	0.861897	0.63094	0.724422
947	H	0.768661	0.637623	0.724422
948	H	0.86858	0.730858	0.724422
949	N	0.798191	0.706689	0.723882
950	H	0.806805	0.724008	0.750352
951	N	0.792831	0.591402	0.723882
952	H	0.775512	0.582696	0.750352
953	N	0.908114	0.701327	0.723886
954	H	0.916823	0.692716	0.750356
955	C	0.754099	0.771413	0.964688
956	C	0.777683	0.758641	0.971395
957	C	0.776041	0.739749	0.010345
958	C	0.750062	0.734339	0.709185
959	C	0.726098	0.747183	0.70334
960	C	0.727788	0.765759	0.663295
961	H	0.7566	0.784985	0.935875
962	H	0.796121	0.763113	0.947278
963	H	0.748329	0.720606	0.737601
964	N	0.702356	0.741014	0.736634
965	H	0.70195	0.728454	0.763694
966	H	0.685492	0.749414	0.735238
967	C	0.702591	0.779205	0.655362
968	H	0.707106	0.798221	0.681992
969	H	0.675534	0.756763	0.65866
970	C	0.801189	0.726021	0.015069
971	H	0.828319	0.748392	0.011966
972	H	0.79628	0.708051	0.986996
973	C	0.728112	0.982585	0.964688
974	C	0.740877	0.518942	0.971399
975	C	0.759773	0.536194	0.010345
976	C	0.765199	0.515627	0.709175
977	C	0.752366	0.978822	0.703327
978	C	0.733781	0.961933	0.663289
979	H	0.714537	0.971513	0.935879
980	H	0.736397	0.532904	0.947288
981	H	0.778943	0.527632	0.737587
982	N	0.758554	0.961256	0.736608
983	H	0.771118	0.973412	0.763667
984	H	0.750164	0.935993	0.735208
985	C	0.720342	0.923292	0.655352
986	H	0.701341	0.908789	0.681995
987	H	0.742793	0.918685	0.658624
988	C	0.773497	0.575069	0.01507
989	H	0.751127	0.579825	0.011971
990	H	0.791466	0.58813	0.986996
991	C	0.516937	0.745428	0.964695
992	C	0.980581	0.721836	0.971405
993	C	0.963327	0.72348	0.010349
994	C	0.983892	0.74947	0.709181
995	C	0.520697	0.773442	0.703337
996	C	0.537588	0.771748	0.663299
997	H	0.528011	0.742923	0.935889
998	H	0.966618	0.703396	0.947291
999	H	0.971887	0.751212	0.737591
1000	N	0.538262	0.797196	0.736618
1001	H	0.526106	0.797605	0.763674
1002	H	0.563525	0.814066	0.735221
1003	C	0.576229	0.796947	0.655365
1004	H	0.590731	0.792445	0.682005
1005	H	0.580839	0.824005	0.658644
1006	C	0.92445	0.698328	0.015072
1007	H	0.919693	0.671201	0.011972
1008	H	0.91139	0.703236	0.986996
