data_C648H216N216_2018-02-15_10:40:00
#******************************************
#
# CIF file created by Zeo++
# Zeo++ is an open source package to
# analyze microporous materials
#
#*******************************************

_cell_length_a		44.9762   
_cell_length_b		44.9973   
_cell_length_c		29.541   
_cell_angle_alpha		90   
_cell_angle_beta		90   
_cell_angle_gamma		119.989   

_symmetry_space_group_name_H-M		'P1'
_symmetry_Int_Tables_number		1
_symmetry_cell_setting		Monoclinic

loop_
_symmetry_equiv_pos_as_xyz
'+x,+y,+z'

loop_
_atom_site_label
_atom_site_type_symbol
_atom_site_fract_x
_atom_site_fract_y
_atom_site_fract_z
1	C	0.045483	0.024543	0.008485
2	C	0.027094	0.042456	0.00841
3	C	0.02705	0.488254	0.008444
4	N	0.099721	0.051687	0.046306
5	C	0.134581	0.069133	0.048687
6	C	0.153786	0.078685	0.008208
7	C	0.045483	0.524543	0.008485
8	C	0.027094	0.542455	0.00841
9	C	0.027049	0.988252	0.008444
10	N	0.099722	0.551687	0.046306
11	C	0.134582	0.569133	0.048687
12	C	0.153787	0.578685	0.008208
13	H	0.146344	0.075035	0.079607
14	H	0.146344	0.575034	0.079607
15	C	0.244822	0.151409	0.007846
16	C	0.208556	0.133187	0.008257
17	H	0.195594	0.146508	0.00897
18	N	0.280819	0.081421	0.046583
19	C	0.265215	0.187755	0.009144
20	C	0.281506	0.205329	0.049696
21	C	0.244823	0.65141	0.007846
22	C	0.208556	0.633187	0.008257
23	H	0.195594	0.646507	0.00897
24	N	0.28082	0.581421	0.046583
25	C	0.265216	0.687755	0.009144
26	C	0.281507	0.705329	0.049696
27	C	0.272196	0.19202	0.089916
28	N	0.26398	0.180079	0.125288
29	C	0.272196	0.69202	0.089916
30	N	0.26398	0.680078	0.125288
31	C	0.190129	0.096794	0.007863
32	C	0.190128	0.596793	0.007863
33	C	0.327814	0.081358	0.009206
34	C	0.310262	0.080067	0.049778
35	N	0.312324	0.234721	0.046397
36	C	0.327815	0.581357	0.009206
37	C	0.310262	0.580066	0.049778
38	N	0.312325	0.734721	0.046397
39	C	0.323544	0.08389	0.089998
40	N	0.335459	0.087468	0.125369
41	C	0.323544	0.583889	0.089998
42	N	0.335459	0.587468	0.125369
43	H	0.040187	0.475089	0.007727
44	H	0.040264	0.068749	0.007706
45	C	0.081927	0.04274	0.339979
46	C	0.153786	0.078685	0.341539
47	N	0.136101	0.069794	0.301844
48	C	0.101217	0.052359	0.29923
49	C	0.087394	0.045458	0.259142
50	N	0.075024	0.039301	0.223859
51	C	0.045483	0.024543	0.341817
52	C	0.027094	0.042456	0.341743
53	C	0.02705	0.488254	0.341776
54	H	0.040187	0.475089	0.341062
55	H	0.040264	0.068749	0.341042
56	C	0.081927	0.04274	0.673309
57	N	0.099721	0.051687	0.379639
58	C	0.134581	0.069133	0.382019
59	C	0.153786	0.078685	0.674873
60	N	0.136101	0.069794	0.635176
61	C	0.101217	0.052359	0.632563
62	H	0.146344	0.075035	0.412939
63	C	0.087394	0.045458	0.592476
64	N	0.075024	0.039301	0.557193
65	C	0.045483	0.024543	0.675151
66	C	0.027094	0.042456	0.675076
67	C	0.02705	0.488254	0.67511
68	H	0.040187	0.475089	0.674393
69	H	0.040264	0.068749	0.674376
70	C	0.081927	0.04274	0.006643
71	N	0.099721	0.051687	0.712973
72	C	0.134581	0.069133	0.715353
73	N	0.136101	0.069794	0.96851
74	C	0.101217	0.052359	0.965896
75	H	0.146344	0.075035	0.746273
76	C	0.087394	0.045458	0.925806
77	N	0.075024	0.039301	0.890523
78	H	0.040187	0.975087	0.007727
79	H	0.040264	0.568748	0.007706
80	C	0.081928	0.54274	0.339979
81	C	0.153787	0.578685	0.341539
82	N	0.136101	0.569795	0.301844
83	C	0.101218	0.55236	0.29923
84	C	0.087394	0.545457	0.259142
85	N	0.075025	0.539302	0.223859
86	C	0.045483	0.524543	0.341817
87	C	0.027094	0.542455	0.341743
88	C	0.027049	0.988252	0.341776
89	H	0.040187	0.975087	0.341062
90	H	0.040264	0.568748	0.341042
91	C	0.081928	0.54274	0.673309
92	N	0.099722	0.551687	0.379639
93	C	0.134582	0.569133	0.382019
94	C	0.153787	0.578685	0.674873
95	N	0.136101	0.569795	0.635176
96	C	0.101218	0.55236	0.632563
97	H	0.146344	0.575034	0.412939
98	C	0.087394	0.545457	0.592476
99	N	0.075025	0.539302	0.557193
100	C	0.045483	0.524543	0.675151
101	C	0.027094	0.542455	0.675076
102	C	0.027049	0.988252	0.67511
103	H	0.040187	0.975087	0.674393
104	H	0.040264	0.568748	0.674376
105	C	0.081928	0.54274	0.006643
106	N	0.099722	0.551687	0.712973
107	C	0.134582	0.569133	0.715353
108	N	0.136101	0.569795	0.96851
109	C	0.101218	0.55236	0.965896
110	H	0.146344	0.575034	0.746273
111	C	0.087394	0.545457	0.925806
112	N	0.075025	0.539302	0.890523
113	H	0.288758	0.145903	0.007307
114	H	0.288759	0.645904	0.007307
115	C	0.244687	0.096559	0.006874
116	C	0.262381	0.132763	0.007222
117	C	0.208421	0.078681	0.007158
118	H	0.195352	0.052401	0.007073
119	C	0.281351	0.079632	0.300134
120	C	0.264834	0.080454	0.007046
121	H	0.273199	0.08303	0.269263
122	N	0.280924	0.20304	0.302907
123	C	0.244687	0.096559	0.340209
124	C	0.262381	0.132763	0.340554
125	C	0.244822	0.151409	0.341181
126	C	0.208556	0.133187	0.34159
127	C	0.190129	0.096794	0.341198
128	C	0.208421	0.078681	0.34049
129	H	0.195594	0.146508	0.342304
130	H	0.195352	0.052401	0.340409
131	H	0.288758	0.145903	0.340642
132	C	0.281351	0.079632	0.633466
133	C	0.264834	0.080454	0.340382
134	N	0.280819	0.081421	0.379917
135	H	0.273199	0.08303	0.602597
136	C	0.265215	0.187755	0.342477
137	N	0.280924	0.20304	0.636239
138	C	0.281506	0.205329	0.383028
139	C	0.272196	0.19202	0.42325
140	N	0.26398	0.180079	0.458621
141	C	0.244687	0.096559	0.67354
142	C	0.262381	0.132763	0.673888
143	C	0.244822	0.151409	0.674511
144	C	0.208556	0.133187	0.674924
145	C	0.190129	0.096794	0.674528
146	C	0.208421	0.078681	0.673824
147	H	0.195594	0.146508	0.675635
148	H	0.195352	0.052401	0.673739
149	H	0.288758	0.145903	0.673973
150	C	0.281351	0.079632	0.9668
151	C	0.264834	0.080454	0.673712
152	N	0.280819	0.081421	0.713251
153	H	0.273199	0.08303	0.935928
154	C	0.265215	0.187755	0.675808
155	N	0.280924	0.20304	0.969573
156	C	0.281506	0.205329	0.716362
157	C	0.272196	0.19202	0.75658
158	N	0.26398	0.180079	0.791955
159	C	0.244688	0.596559	0.006874
160	C	0.262381	0.632761	0.007222
161	C	0.208422	0.57868	0.007158
162	H	0.195353	0.552401	0.007073
163	C	0.281353	0.579632	0.300134
164	C	0.264835	0.580453	0.007046
165	H	0.2732	0.583029	0.269263
166	N	0.280924	0.70304	0.302907
167	C	0.244688	0.596559	0.340209
168	C	0.262381	0.632761	0.340554
169	C	0.244823	0.65141	0.341181
170	C	0.208556	0.633187	0.34159
171	C	0.190128	0.596793	0.341198
172	C	0.208422	0.57868	0.34049
173	H	0.195594	0.646507	0.342304
174	H	0.195353	0.552401	0.340409
175	H	0.288759	0.645904	0.340642
176	C	0.281353	0.579632	0.633466
177	C	0.264835	0.580453	0.340382
178	N	0.28082	0.581421	0.379917
179	H	0.2732	0.583029	0.602597
180	C	0.265216	0.687755	0.342477
181	N	0.280924	0.70304	0.636239
182	C	0.281507	0.705329	0.383028
183	C	0.272196	0.69202	0.42325
184	N	0.26398	0.680078	0.458621
185	C	0.244688	0.596559	0.67354
186	C	0.262381	0.632761	0.673888
187	C	0.244823	0.65141	0.674511
188	C	0.208556	0.633187	0.674924
189	C	0.190128	0.596793	0.674528
190	C	0.208422	0.57868	0.673824
191	H	0.195594	0.646507	0.675635
192	H	0.195353	0.552401	0.673739
193	H	0.288759	0.645904	0.673973
194	C	0.281353	0.579632	0.9668
195	C	0.264835	0.580453	0.673712
196	N	0.28082	0.581421	0.713251
197	H	0.2732	0.583029	0.935928
198	C	0.265216	0.687755	0.675808
199	N	0.280924	0.70304	0.969573
200	C	0.281507	0.705329	0.716362
201	C	0.272196	0.69202	0.75658
202	N	0.26398	0.680078	0.791955
203	N	0.312517	0.081828	0.303004
204	C	0.309777	0.234268	0.299882
205	C	0.327195	0.250658	0.006772
206	H	0.321447	0.242217	0.269059
207	C	0.327814	0.081358	0.342538
208	N	0.312517	0.081828	0.636337
209	C	0.310262	0.080067	0.383112
210	C	0.323544	0.08389	0.423331
211	N	0.335459	0.087468	0.458702
212	C	0.309777	0.234268	0.633216
213	C	0.327195	0.250658	0.340108
214	N	0.312324	0.234721	0.379731
215	H	0.321447	0.242217	0.602391
216	C	0.327814	0.081358	0.675872
217	N	0.312517	0.081828	0.969671
218	C	0.310262	0.080067	0.716443
219	C	0.323544	0.08389	0.756665
220	N	0.335459	0.087468	0.792033
221	C	0.309777	0.234268	0.966546
222	C	0.327195	0.250658	0.673438
223	N	0.312324	0.234721	0.713061
224	H	0.321447	0.242217	0.935725
225	N	0.312516	0.581829	0.303004
226	C	0.309776	0.734267	0.299882
227	C	0.327196	0.750658	0.006772
228	H	0.321447	0.742216	0.269059
229	C	0.327815	0.581357	0.342538
230	N	0.312516	0.581829	0.636337
231	C	0.310262	0.580066	0.383112
232	C	0.323544	0.583889	0.423331
233	N	0.335459	0.587468	0.458702
234	C	0.309776	0.734267	0.633216
235	C	0.327196	0.750658	0.340108
236	N	0.312325	0.734721	0.379731
237	H	0.321447	0.742216	0.602391
238	C	0.327815	0.581357	0.675872
239	N	0.312516	0.581829	0.969671
240	C	0.310262	0.580066	0.716443
241	C	0.323544	0.583889	0.756665
242	N	0.335459	0.587468	0.792033
243	C	0.309776	0.734267	0.966546
244	C	0.327196	0.750658	0.673438
245	N	0.312325	0.734721	0.713061
246	H	0.321447	0.742216	0.935725
247	C	0.49079	0.0246	0.008483
248	C	0.472872	0.48831	0.008425
249	C	0.490744	0.469877	0.008491
250	C	0.364174	0.097321	0.007885
251	C	0.382404	0.079293	0.008367
252	H	0.369078	0.053021	0.009136
253	C	0.418196	0.270594	0.007924
254	C	0.436237	0.306845	0.008373
255	H	0.46252	0.319787	0.009128
256	N	0.46364	0.051677	0.046323
257	C	0.446291	0.069185	0.048718
258	N	0.46368	0.415663	0.046324
259	C	0.44624	0.380819	0.048713
260	C	0.434186	0.25021	0.009242
261	N	0.434111	0.203131	0.046404
262	C	0.435471	0.233916	0.049772
263	C	0.436903	0.079011	0.008248
264	C	0.436509	0.361613	0.008242
265	C	0.49079	0.5246	0.008483
266	C	0.472873	0.988311	0.008425
267	C	0.490744	0.969878	0.008491
268	C	0.364174	0.597321	0.007885
269	C	0.382406	0.579294	0.008367
270	H	0.369079	0.553022	0.009136
271	C	0.418198	0.770594	0.007924
272	C	0.436236	0.806843	0.008373
273	H	0.46252	0.819785	0.009128
274	N	0.46364	0.551677	0.046323
275	C	0.446291	0.569184	0.048718
276	N	0.463679	0.915661	0.046324
277	C	0.446238	0.880817	0.048713
278	C	0.434185	0.750209	0.009242
279	N	0.434111	0.70313	0.046404
280	C	0.435472	0.733915	0.049772
281	C	0.436903	0.579009	0.008248
282	C	0.436509	0.861611	0.008242
283	C	0.545482	0.024543	0.008485
284	C	0.527094	0.042456	0.00841
285	C	0.99079	0.0246	0.008483
286	C	0.972872	0.48831	0.008425
287	C	0.990744	0.469877	0.008491
288	C	0.52705	0.488254	0.008444
289	C	0.744822	0.151409	0.007846
290	C	0.708556	0.133187	0.008257
291	H	0.695593	0.146508	0.00897
292	C	0.864174	0.097321	0.007885
293	C	0.882404	0.079293	0.008367
294	H	0.86908	0.053021	0.009136
295	C	0.918196	0.270594	0.007924
296	C	0.936237	0.306845	0.008373
297	H	0.96252	0.319787	0.009128
298	N	0.599722	0.051687	0.046306
299	C	0.634582	0.069133	0.048687
300	N	0.96364	0.051677	0.046323
301	C	0.946291	0.069185	0.048718
302	N	0.96368	0.415663	0.046324
303	C	0.94624	0.380819	0.048713
304	C	0.827816	0.081358	0.009206
305	N	0.780819	0.081421	0.046583
306	C	0.810262	0.080067	0.049778
307	C	0.934186	0.25021	0.009242
308	N	0.934111	0.203131	0.046404
309	C	0.935471	0.233916	0.049772
310	C	0.765214	0.187755	0.009144
311	N	0.812324	0.234721	0.046397
312	C	0.781506	0.205329	0.049696
313	C	0.653786	0.078685	0.008208
314	C	0.936903	0.079011	0.008248
315	C	0.936511	0.361613	0.008242
316	C	0.545484	0.524543	0.008485
317	C	0.527094	0.542455	0.00841
318	C	0.99079	0.5246	0.008483
319	C	0.972872	0.988311	0.008425
320	C	0.990744	0.969878	0.008491
321	C	0.52705	0.988252	0.008444
322	C	0.744823	0.65141	0.007846
323	C	0.708556	0.633187	0.008257
324	H	0.695595	0.646507	0.00897
325	C	0.864174	0.597321	0.007885
326	C	0.882407	0.579294	0.008367
327	H	0.86908	0.553022	0.009136
328	C	0.918199	0.770594	0.007924
329	C	0.936236	0.806843	0.008373
330	H	0.962521	0.819785	0.009128
331	N	0.599722	0.551687	0.046306
332	C	0.634582	0.569133	0.048687
333	N	0.96364	0.551677	0.046323
334	C	0.94629	0.569184	0.048718
335	N	0.963679	0.915661	0.046324
336	C	0.946239	0.880817	0.048713
337	C	0.827816	0.581357	0.009206
338	N	0.780821	0.581421	0.046583
339	C	0.810261	0.580066	0.049778
340	C	0.934185	0.750209	0.009242
341	N	0.93411	0.70313	0.046404
342	C	0.935473	0.733915	0.049772
343	C	0.765217	0.687755	0.009144
344	N	0.812324	0.734721	0.046397
345	C	0.781507	0.705329	0.049696
346	C	0.653786	0.578685	0.008208
347	C	0.936904	0.579009	0.008248
348	C	0.93651	0.861611	0.008242
349	H	0.440348	0.074997	0.079643
350	H	0.44041	0.369067	0.079637
351	C	0.431488	0.243219	0.090005
352	N	0.427782	0.251433	0.125388
353	H	0.440348	0.574996	0.079643
354	H	0.440408	0.869065	0.079637
355	C	0.431489	0.743219	0.090005
356	N	0.427782	0.751433	0.125388
357	H	0.646345	0.075035	0.079607
358	H	0.940348	0.074997	0.079643
359	H	0.94041	0.369067	0.079637
360	C	0.823544	0.08389	0.089998
361	N	0.835459	0.087468	0.125369
362	C	0.931488	0.243219	0.090005
363	N	0.927782	0.251433	0.125388
364	C	0.772196	0.19202	0.089916
365	N	0.763979	0.180079	0.125288
366	H	0.646344	0.575034	0.079607
367	H	0.940347	0.574996	0.079643
368	H	0.940409	0.869065	0.079637
369	C	0.823544	0.583889	0.089998
370	N	0.835459	0.587468	0.125369
371	C	0.93149	0.743219	0.090005
372	N	0.927782	0.751433	0.125388
373	C	0.772196	0.69202	0.089916
374	N	0.763981	0.680078	0.125288
375	C	0.418812	0.097258	0.007916
376	C	0.41827	0.325283	0.007911
377	C	0.418812	0.597257	0.007916
378	C	0.418268	0.825281	0.007911
379	C	0.69013	0.096794	0.007863
380	C	0.918812	0.097258	0.007916
381	C	0.91827	0.325283	0.007911
382	C	0.690129	0.596793	0.007863
383	C	0.918811	0.597257	0.007916
384	C	0.918269	0.825281	0.007911
385	H	0.369668	0.146736	0.007192
386	C	0.381988	0.253057	0.007226
387	H	0.368753	0.226693	0.00727
388	H	0.369667	0.646735	0.007192
389	C	0.381987	0.753057	0.007226
390	H	0.368753	0.726692	0.00727
391	H	0.788758	0.145903	0.007307
392	H	0.869668	0.146736	0.007192
393	C	0.881988	0.253057	0.007226
394	H	0.868753	0.226693	0.00727
395	H	0.788758	0.645904	0.007307
396	H	0.869668	0.646735	0.007192
397	C	0.881988	0.753057	0.007226
398	H	0.868752	0.726692	0.00727
399	H	0.446567	0.475186	0.007727
400	C	0.41904	0.15203	0.006813
401	C	0.38282	0.133513	0.007158
402	C	0.436928	0.133651	0.00711
403	H	0.463221	0.146858	0.006958
404	C	0.363469	0.270758	0.006863
405	C	0.381861	0.307011	0.007117
406	H	0.368648	0.320087	0.006945
407	C	0.472608	0.042862	0.339989
408	C	0.436903	0.079011	0.34158
409	N	0.445812	0.070242	0.301878
410	C	0.463148	0.052697	0.299249
411	C	0.470078	0.045815	0.259156
412	N	0.476256	0.039632	0.223867
413	C	0.472498	0.433444	0.339992
414	C	0.436509	0.361613	0.341573
415	N	0.445278	0.379287	0.301876
416	C	0.462754	0.414154	0.299252
417	C	0.469652	0.427966	0.259161
418	N	0.475847	0.440324	0.223874
419	N	0.433729	0.234584	0.302923
420	C	0.435965	0.205655	0.299914
421	C	0.435167	0.188286	0.006745
422	H	0.43255	0.194141	0.269021
423	C	0.49079	0.0246	0.341814
424	C	0.472872	0.48831	0.341756
425	C	0.490744	0.469877	0.341824
426	H	0.446567	0.475186	0.341062
427	C	0.41904	0.15203	0.340148
428	C	0.38282	0.133513	0.340493
429	C	0.364174	0.097321	0.341218
430	C	0.382404	0.079293	0.341699
431	C	0.418812	0.097258	0.341248
432	C	0.436928	0.133651	0.340446
433	H	0.369078	0.053021	0.342467
434	H	0.463221	0.146858	0.340294
435	H	0.369668	0.146736	0.340527
436	C	0.363469	0.270758	0.340196
437	C	0.381988	0.253057	0.340561
438	C	0.418196	0.270594	0.341258
439	C	0.436237	0.306845	0.341705
440	C	0.41827	0.325283	0.341245
441	C	0.381861	0.307011	0.340453
442	H	0.46252	0.319787	0.34246
443	H	0.368648	0.320087	0.34028
444	H	0.368753	0.226693	0.340605
445	C	0.472608	0.042862	0.67332
446	N	0.46364	0.051677	0.379656
447	C	0.446291	0.069185	0.382053
448	C	0.436903	0.079011	0.674914
449	N	0.445812	0.070242	0.63521
450	C	0.463148	0.052697	0.632583
451	H	0.440348	0.074997	0.412976
452	C	0.470078	0.045815	0.592489
453	N	0.476256	0.039632	0.557199
454	C	0.472498	0.433444	0.673326
455	N	0.46368	0.415663	0.379656
456	C	0.44624	0.380819	0.382046
457	C	0.436509	0.361613	0.674907
458	N	0.445278	0.379287	0.63521
459	C	0.462754	0.414154	0.632586
460	H	0.44041	0.369067	0.412969
461	C	0.469652	0.427966	0.592493
462	N	0.475847	0.440324	0.557206
463	C	0.434186	0.25021	0.342575
464	N	0.433729	0.234584	0.636256
465	C	0.435965	0.205655	0.633246
466	C	0.435167	0.188286	0.340077
467	N	0.434111	0.203131	0.379737
468	C	0.435471	0.233916	0.383105
469	H	0.43255	0.194141	0.602354
470	C	0.431488	0.243219	0.423338
471	N	0.427782	0.251433	0.458723
472	C	0.49079	0.0246	0.675148
473	C	0.472872	0.48831	0.67509
474	C	0.490744	0.469877	0.675158
475	H	0.446567	0.475186	0.674396
476	C	0.41904	0.15203	0.673479
477	C	0.38282	0.133513	0.673827
478	C	0.364174	0.097321	0.674552
479	C	0.382404	0.079293	0.675032
480	C	0.418812	0.097258	0.674582
481	C	0.436928	0.133651	0.67378
482	H	0.369078	0.053021	0.675801
483	H	0.463221	0.146858	0.673624
484	H	0.369668	0.146736	0.673858
485	C	0.363469	0.270758	0.673529
486	C	0.381988	0.253057	0.673895
487	C	0.418196	0.270594	0.674589
488	C	0.436237	0.306845	0.675039
489	C	0.41827	0.325283	0.674575
490	C	0.381861	0.307011	0.673787
491	H	0.46252	0.319787	0.675794
492	H	0.368648	0.320087	0.673611
493	H	0.368753	0.226693	0.673936
494	C	0.472608	0.042862	0.006653
495	N	0.46364	0.051677	0.71299
496	C	0.446291	0.069185	0.715383
497	N	0.445812	0.070242	0.968544
498	C	0.463148	0.052697	0.965913
499	H	0.440348	0.074997	0.74631
500	C	0.470078	0.045815	0.92582
501	N	0.476256	0.039632	0.890533
502	C	0.472498	0.433444	0.006657
503	N	0.46368	0.415663	0.71299
504	C	0.44624	0.380819	0.71538
505	N	0.445278	0.379287	0.96854
506	C	0.462754	0.414154	0.965917
507	H	0.44041	0.369067	0.746303
508	C	0.469652	0.427966	0.925827
509	N	0.475847	0.440324	0.89054
510	C	0.434186	0.25021	0.675909
511	N	0.433729	0.234584	0.96959
512	C	0.435965	0.205655	0.96658
513	C	0.435167	0.188286	0.673411
514	N	0.434111	0.203131	0.713071
515	C	0.435471	0.233916	0.716436
516	H	0.43255	0.194141	0.935688
517	C	0.431488	0.243219	0.756672
518	N	0.427782	0.251433	0.792053
519	H	0.446568	0.975187	0.007727
520	C	0.419042	0.652031	0.006813
521	C	0.38282	0.633513	0.007158
522	C	0.436929	0.633652	0.00711
523	H	0.46322	0.646858	0.006958
524	C	0.36347	0.770759	0.006863
525	C	0.38186	0.807009	0.007117
526	H	0.368649	0.820088	0.006945
527	C	0.472609	0.542861	0.339989
528	C	0.436903	0.579009	0.34158
529	N	0.445811	0.570241	0.301878
530	C	0.463146	0.552696	0.299249
531	C	0.470077	0.545814	0.259156
532	N	0.476254	0.53963	0.223867
533	C	0.472499	0.933445	0.339992
534	C	0.436509	0.861611	0.341573
535	N	0.445279	0.879287	0.301876
536	C	0.462756	0.914155	0.299252
537	C	0.469652	0.927964	0.259161
538	N	0.475848	0.940324	0.223874
539	N	0.433729	0.734583	0.302923
540	C	0.435965	0.705655	0.299914
541	C	0.435166	0.688284	0.006745
542	H	0.43255	0.694139	0.269021
543	C	0.49079	0.5246	0.341814
544	C	0.472873	0.988311	0.341756
545	C	0.490744	0.969878	0.341824
546	H	0.446568	0.975187	0.341062
547	C	0.419042	0.652031	0.340148
548	C	0.38282	0.633513	0.340493
549	C	0.364174	0.597321	0.341218
550	C	0.382406	0.579294	0.341699
551	C	0.418812	0.597257	0.341248
552	C	0.436929	0.633652	0.340446
553	H	0.369079	0.553022	0.342467
554	H	0.46322	0.646858	0.340294
555	H	0.369667	0.646735	0.340527
556	C	0.36347	0.770759	0.340196
557	C	0.381987	0.753057	0.340561
558	C	0.418198	0.770594	0.341258
559	C	0.436236	0.806843	0.341705
560	C	0.418268	0.825281	0.341245
561	C	0.38186	0.807009	0.340453
562	H	0.46252	0.819785	0.34246
563	H	0.368649	0.820088	0.34028
564	H	0.368753	0.726692	0.340605
565	C	0.472609	0.542861	0.67332
566	N	0.46364	0.551677	0.379656
567	C	0.446291	0.569184	0.382053
568	C	0.436903	0.579009	0.674914
569	N	0.445811	0.570241	0.63521
570	C	0.463146	0.552696	0.632583
571	H	0.440348	0.574996	0.412976
572	C	0.470077	0.545814	0.592489
573	N	0.476254	0.53963	0.557199
574	C	0.472499	0.933445	0.673326
575	N	0.463679	0.915661	0.379656
576	C	0.446238	0.880817	0.382046
577	C	0.436509	0.861611	0.674907
578	N	0.445279	0.879287	0.63521
579	C	0.462756	0.914155	0.632586
580	H	0.440408	0.869065	0.412969
581	C	0.469652	0.927964	0.592493
582	N	0.475848	0.940324	0.557206
583	C	0.434185	0.750209	0.342575
584	N	0.433729	0.734583	0.636256
585	C	0.435965	0.705655	0.633246
586	C	0.435166	0.688284	0.340077
587	N	0.434111	0.70313	0.379737
588	C	0.435472	0.733915	0.383105
589	H	0.43255	0.694139	0.602354
590	C	0.431489	0.743219	0.423338
591	N	0.427782	0.751433	0.458723
592	C	0.49079	0.5246	0.675148
593	C	0.472873	0.988311	0.67509
594	C	0.490744	0.969878	0.675158
595	H	0.446568	0.975187	0.674396
596	C	0.419042	0.652031	0.673479
597	C	0.38282	0.633513	0.673827
598	C	0.364174	0.597321	0.674552
599	C	0.382406	0.579294	0.675032
600	C	0.418812	0.597257	0.674582
601	C	0.436929	0.633652	0.67378
602	H	0.369079	0.553022	0.675801
603	H	0.46322	0.646858	0.673624
604	H	0.369667	0.646735	0.673858
605	C	0.36347	0.770759	0.673529
606	C	0.381987	0.753057	0.673895
607	C	0.418198	0.770594	0.674589
608	C	0.436236	0.806843	0.675039
609	C	0.418268	0.825281	0.674575
610	C	0.38186	0.807009	0.673787
611	H	0.46252	0.819785	0.675794
612	H	0.368649	0.820088	0.673611
613	H	0.368753	0.726692	0.673936
614	C	0.472609	0.542861	0.006653
615	N	0.46364	0.551677	0.71299
616	C	0.446291	0.569184	0.715383
617	N	0.445811	0.570241	0.968544
618	C	0.463146	0.552696	0.965913
619	H	0.440348	0.574996	0.74631
620	C	0.470077	0.545814	0.92582
621	N	0.476254	0.53963	0.890533
622	C	0.472499	0.933445	0.006657
623	N	0.463679	0.915661	0.71299
624	C	0.446238	0.880817	0.71538
625	N	0.445279	0.879287	0.96854
626	C	0.462756	0.914155	0.965917
627	H	0.440408	0.869065	0.746303
628	C	0.469652	0.927964	0.925827
629	N	0.475848	0.940324	0.89054
630	C	0.434185	0.750209	0.675909
631	N	0.433729	0.734583	0.96959
632	C	0.435965	0.705655	0.96658
633	C	0.435166	0.688284	0.673411
634	N	0.434111	0.70313	0.713071
635	C	0.435472	0.733915	0.716436
636	H	0.43255	0.694139	0.935688
637	C	0.431489	0.743219	0.756672
638	N	0.427782	0.751433	0.792053
639	H	0.946567	0.475186	0.007727
640	H	0.540188	0.475089	0.007727
641	H	0.540264	0.068749	0.007706
642	C	0.744688	0.096559	0.006874
643	C	0.762381	0.132763	0.007222
644	C	0.708422	0.078681	0.007158
645	H	0.695352	0.052401	0.007073
646	C	0.91904	0.15203	0.006813
647	C	0.88282	0.133513	0.007158
648	C	0.936928	0.133651	0.00711
649	H	0.963221	0.146858	0.006958
650	C	0.863469	0.270758	0.006863
651	C	0.881861	0.307011	0.007117
652	H	0.868647	0.320087	0.006945
653	C	0.581927	0.04274	0.339979
654	C	0.653786	0.078685	0.341539
655	N	0.6361	0.069794	0.301844
656	C	0.601218	0.052359	0.29923
657	C	0.587395	0.045458	0.259142
658	N	0.575025	0.039301	0.223859
659	C	0.972608	0.042862	0.339989
660	C	0.936903	0.079011	0.34158
661	N	0.945812	0.070242	0.301878
662	C	0.963148	0.052697	0.299249
663	C	0.970078	0.045815	0.259156
664	N	0.976256	0.039632	0.223867
665	C	0.972498	0.433444	0.339992
666	C	0.936511	0.361613	0.341573
667	N	0.945278	0.379287	0.301876
668	C	0.962754	0.414154	0.299252
669	C	0.969652	0.427966	0.259161
670	N	0.975847	0.440324	0.223874
671	N	0.812517	0.081828	0.303004
672	C	0.781351	0.079632	0.300134
673	C	0.764834	0.080454	0.007046
674	H	0.773199	0.08303	0.269263
675	N	0.933729	0.234584	0.302923
676	C	0.935965	0.205655	0.299914
677	C	0.935167	0.188286	0.006745
678	H	0.93255	0.194141	0.269021
679	N	0.780924	0.20304	0.302907
680	C	0.809777	0.234268	0.299882
681	C	0.827195	0.250658	0.006772
682	H	0.821447	0.242217	0.269059
683	C	0.545482	0.024543	0.341817
684	C	0.527094	0.042456	0.341743
685	C	0.99079	0.0246	0.341814
686	C	0.972872	0.48831	0.341756
687	C	0.990744	0.469877	0.341824
688	C	0.52705	0.488254	0.341776
689	H	0.946567	0.475186	0.341062
690	H	0.540188	0.475089	0.341062
691	H	0.540264	0.068749	0.341042
692	C	0.744688	0.096559	0.340209
693	C	0.762381	0.132763	0.340554
694	C	0.744822	0.151409	0.341181
695	C	0.708556	0.133187	0.34159
696	C	0.69013	0.096794	0.341198
697	C	0.708422	0.078681	0.34049
698	H	0.695593	0.146508	0.342304
699	H	0.695352	0.052401	0.340409
700	H	0.788758	0.145903	0.340642
701	C	0.91904	0.15203	0.340148
702	C	0.88282	0.133513	0.340493
703	C	0.864174	0.097321	0.341218
704	C	0.882404	0.079293	0.341699
705	C	0.918812	0.097258	0.341248
706	C	0.936928	0.133651	0.340446
707	H	0.86908	0.053021	0.342467
708	H	0.963221	0.146858	0.340294
709	H	0.869668	0.146736	0.340527
710	C	0.863469	0.270758	0.340196
711	C	0.881988	0.253057	0.340561
712	C	0.918196	0.270594	0.341258
713	C	0.936237	0.306845	0.341705
714	C	0.91827	0.325283	0.341245
715	C	0.881861	0.307011	0.340453
716	H	0.96252	0.319787	0.34246
717	H	0.868647	0.320087	0.34028
718	H	0.868753	0.226693	0.340605
719	C	0.581927	0.04274	0.673309
720	N	0.599722	0.051687	0.379639
721	C	0.634582	0.069133	0.382019
722	C	0.653786	0.078685	0.674873
723	N	0.6361	0.069794	0.635176
724	C	0.601218	0.052359	0.632563
725	H	0.646345	0.075035	0.412939
726	C	0.587395	0.045458	0.592476
727	N	0.575025	0.039301	0.557193
728	C	0.972608	0.042862	0.67332
729	N	0.96364	0.051677	0.379656
730	C	0.946291	0.069185	0.382053
731	C	0.936903	0.079011	0.674914
732	N	0.945812	0.070242	0.63521
733	C	0.963148	0.052697	0.632583
734	H	0.940348	0.074997	0.412976
735	C	0.970078	0.045815	0.592489
736	N	0.976256	0.039632	0.557199
737	C	0.972498	0.433444	0.673326
738	N	0.96368	0.415663	0.379656
739	C	0.94624	0.380819	0.382046
740	C	0.936511	0.361613	0.674907
741	N	0.945278	0.379287	0.63521
742	C	0.962754	0.414154	0.632586
743	H	0.94041	0.369067	0.412969
744	C	0.969652	0.427966	0.592493
745	N	0.975847	0.440324	0.557206
746	C	0.827816	0.081358	0.342538
747	N	0.812517	0.081828	0.636337
748	C	0.781351	0.079632	0.633466
749	C	0.764834	0.080454	0.340382
750	N	0.780819	0.081421	0.379917
751	C	0.810262	0.080067	0.383112
752	H	0.773199	0.08303	0.602597
753	C	0.823544	0.08389	0.423331
754	N	0.835459	0.087468	0.458702
755	C	0.934186	0.25021	0.342575
756	N	0.933729	0.234584	0.636256
757	C	0.935965	0.205655	0.633246
758	C	0.935167	0.188286	0.340077
759	N	0.934111	0.203131	0.379737
760	C	0.935471	0.233916	0.383105
761	H	0.93255	0.194141	0.602354
762	C	0.931488	0.243219	0.423338
763	N	0.927782	0.251433	0.458723
764	C	0.765214	0.187755	0.342477
765	N	0.780924	0.20304	0.636239
766	C	0.809777	0.234268	0.633216
767	C	0.827195	0.250658	0.340108
768	N	0.812324	0.234721	0.379731
769	C	0.781506	0.205329	0.383028
770	H	0.821447	0.242217	0.602391
771	C	0.772196	0.19202	0.42325
772	N	0.763979	0.180079	0.458621
773	C	0.545482	0.024543	0.675151
774	C	0.527094	0.042456	0.675076
775	C	0.99079	0.0246	0.675148
776	C	0.972872	0.48831	0.67509
777	C	0.990744	0.469877	0.675158
778	C	0.52705	0.488254	0.67511
779	H	0.946567	0.475186	0.674396
780	H	0.540188	0.475089	0.674393
781	H	0.540264	0.068749	0.674376
782	C	0.744688	0.096559	0.67354
783	C	0.762381	0.132763	0.673888
784	C	0.744822	0.151409	0.674511
785	C	0.708556	0.133187	0.674924
786	C	0.69013	0.096794	0.674528
787	C	0.708422	0.078681	0.673824
788	H	0.695593	0.146508	0.675635
789	H	0.695352	0.052401	0.673739
790	H	0.788758	0.145903	0.673973
791	C	0.91904	0.15203	0.673479
792	C	0.88282	0.133513	0.673827
793	C	0.864174	0.097321	0.674552
794	C	0.882404	0.079293	0.675032
795	C	0.918812	0.097258	0.674582
796	C	0.936928	0.133651	0.67378
797	H	0.86908	0.053021	0.675801
798	H	0.963221	0.146858	0.673624
799	H	0.869668	0.146736	0.673858
800	C	0.863469	0.270758	0.673529
801	C	0.881988	0.253057	0.673895
802	C	0.918196	0.270594	0.674589
803	C	0.936237	0.306845	0.675039
804	C	0.91827	0.325283	0.674575
805	C	0.881861	0.307011	0.673787
806	H	0.96252	0.319787	0.675794
807	H	0.868647	0.320087	0.673611
808	H	0.868753	0.226693	0.673936
809	C	0.581927	0.04274	0.006643
810	N	0.599722	0.051687	0.712973
811	C	0.634582	0.069133	0.715353
812	N	0.6361	0.069794	0.96851
813	C	0.601218	0.052359	0.965896
814	H	0.646345	0.075035	0.746273
815	C	0.587395	0.045458	0.925806
816	N	0.575025	0.039301	0.890523
817	C	0.972608	0.042862	0.006653
818	N	0.96364	0.051677	0.71299
819	C	0.946291	0.069185	0.715383
820	N	0.945812	0.070242	0.968544
821	C	0.963148	0.052697	0.965913
822	H	0.940348	0.074997	0.74631
823	C	0.970078	0.045815	0.92582
824	N	0.976256	0.039632	0.890533
825	C	0.972498	0.433444	0.006657
826	N	0.96368	0.415663	0.71299
827	C	0.94624	0.380819	0.71538
828	N	0.945278	0.379287	0.96854
829	C	0.962754	0.414154	0.965917
830	H	0.94041	0.369067	0.746303
831	C	0.969652	0.427966	0.925827
832	N	0.975847	0.440324	0.89054
833	C	0.827816	0.081358	0.675872
834	N	0.812517	0.081828	0.969671
835	C	0.781351	0.079632	0.9668
836	C	0.764834	0.080454	0.673712
837	N	0.780819	0.081421	0.713251
838	C	0.810262	0.080067	0.716443
839	H	0.773199	0.08303	0.935928
840	C	0.823544	0.08389	0.756665
841	N	0.835459	0.087468	0.792033
842	C	0.934186	0.25021	0.675909
843	N	0.933729	0.234584	0.96959
844	C	0.935965	0.205655	0.96658
845	C	0.935167	0.188286	0.673411
846	N	0.934111	0.203131	0.713071
847	C	0.935471	0.233916	0.716436
848	H	0.93255	0.194141	0.935688
849	C	0.931488	0.243219	0.756672
850	N	0.927782	0.251433	0.792053
851	C	0.765214	0.187755	0.675808
852	N	0.780924	0.20304	0.969573
853	C	0.809777	0.234268	0.966546
854	C	0.827195	0.250658	0.673438
855	N	0.812324	0.234721	0.713061
856	C	0.781506	0.205329	0.716362
857	H	0.821447	0.242217	0.935725
858	C	0.772196	0.19202	0.75658
859	N	0.763979	0.180079	0.791955
860	H	0.946568	0.975187	0.007727
861	H	0.540187	0.975087	0.007727
862	H	0.540264	0.568748	0.007706
863	C	0.744688	0.596559	0.006874
864	C	0.76238	0.632761	0.007222
865	C	0.708422	0.57868	0.007158
866	H	0.695353	0.552401	0.007073
867	C	0.919041	0.652031	0.006813
868	C	0.88282	0.633513	0.007158
869	C	0.936928	0.633652	0.00711
870	H	0.963221	0.646858	0.006958
871	C	0.86347	0.770759	0.006863
872	C	0.88186	0.807009	0.007117
873	H	0.868649	0.820088	0.006945
874	C	0.581927	0.54274	0.339979
875	C	0.653786	0.578685	0.341539
876	N	0.636102	0.569795	0.301844
877	C	0.601219	0.55236	0.29923
878	C	0.587395	0.545457	0.259142
879	N	0.575025	0.539302	0.223859
880	C	0.97261	0.542861	0.339989
881	C	0.936904	0.579009	0.34158
882	N	0.945812	0.570241	0.301878
883	C	0.963147	0.552696	0.299249
884	C	0.970078	0.545814	0.259156
885	N	0.976255	0.53963	0.223867
886	C	0.972499	0.933445	0.339992
887	C	0.93651	0.861611	0.341573
888	N	0.945278	0.879287	0.301876
889	C	0.962757	0.914155	0.299252
890	C	0.969654	0.927964	0.259161
891	N	0.975848	0.940324	0.223874
892	N	0.812517	0.581829	0.303004
893	C	0.781354	0.579632	0.300134
894	C	0.764835	0.580453	0.007046
895	H	0.773201	0.583029	0.269263
896	N	0.933728	0.734583	0.302923
897	C	0.935964	0.705655	0.299914
898	C	0.935166	0.688284	0.006745
899	H	0.932549	0.694139	0.269021
900	N	0.780925	0.70304	0.302907
901	C	0.809776	0.734267	0.299882
902	C	0.827195	0.750658	0.006772
903	H	0.821448	0.742216	0.269059
904	C	0.545484	0.524543	0.341817
905	C	0.527094	0.542455	0.341743
906	C	0.99079	0.5246	0.341814
907	C	0.972872	0.988311	0.341756
908	C	0.990744	0.969878	0.341824
909	C	0.52705	0.988252	0.341776
910	H	0.946568	0.975187	0.341062
911	H	0.540187	0.975087	0.341062
912	H	0.540264	0.568748	0.341042
913	C	0.744688	0.596559	0.340209
914	C	0.76238	0.632761	0.340554
915	C	0.744823	0.65141	0.341181
916	C	0.708556	0.633187	0.34159
917	C	0.690129	0.596793	0.341198
918	C	0.708422	0.57868	0.34049
919	H	0.695595	0.646507	0.342304
920	H	0.695353	0.552401	0.340409
921	H	0.788758	0.645904	0.340642
922	C	0.919041	0.652031	0.340148
923	C	0.88282	0.633513	0.340493
924	C	0.864174	0.597321	0.341218
925	C	0.882407	0.579294	0.341699
926	C	0.918811	0.597257	0.341248
927	C	0.936928	0.633652	0.340446
928	H	0.86908	0.553022	0.342467
929	H	0.963221	0.646858	0.340294
930	H	0.869668	0.646735	0.340527
931	C	0.86347	0.770759	0.340196
932	C	0.881988	0.753057	0.340561
933	C	0.918199	0.770594	0.341258
934	C	0.936236	0.806843	0.341705
935	C	0.918269	0.825281	0.341245
936	C	0.88186	0.807009	0.340453
937	H	0.962521	0.819785	0.34246
938	H	0.868649	0.820088	0.34028
939	H	0.868752	0.726692	0.340605
940	C	0.581927	0.54274	0.673309
941	N	0.599722	0.551687	0.379639
942	C	0.634582	0.569133	0.382019
943	C	0.653786	0.578685	0.674873
944	N	0.636102	0.569795	0.635176
945	C	0.601219	0.55236	0.632563
946	H	0.646344	0.575034	0.412939
947	C	0.587395	0.545457	0.592476
948	N	0.575025	0.539302	0.557193
949	C	0.97261	0.542861	0.67332
950	N	0.96364	0.551677	0.379656
951	C	0.94629	0.569184	0.382053
952	C	0.936904	0.579009	0.674914
953	N	0.945812	0.570241	0.63521
954	C	0.963147	0.552696	0.632583
955	H	0.940347	0.574996	0.412976
956	C	0.970078	0.545814	0.592489
957	N	0.976255	0.53963	0.557199
958	C	0.972499	0.933445	0.673326
959	N	0.963679	0.915661	0.379656
960	C	0.946239	0.880817	0.382046
961	C	0.93651	0.861611	0.674907
962	N	0.945278	0.879287	0.63521
963	C	0.962757	0.914155	0.632586
964	H	0.940409	0.869065	0.412969
965	C	0.969654	0.927964	0.592493
966	N	0.975848	0.940324	0.557206
967	C	0.827816	0.581357	0.342538
968	N	0.812517	0.581829	0.636337
969	C	0.781354	0.579632	0.633466
970	C	0.764835	0.580453	0.340382
971	N	0.780821	0.581421	0.379917
972	C	0.810261	0.580066	0.383112
973	H	0.773201	0.583029	0.602597
974	C	0.823544	0.583889	0.423331
975	N	0.835459	0.587468	0.458702
976	C	0.934185	0.750209	0.342575
977	N	0.933728	0.734583	0.636256
978	C	0.935964	0.705655	0.633246
979	C	0.935166	0.688284	0.340077
980	N	0.93411	0.70313	0.379737
981	C	0.935473	0.733915	0.383105
982	H	0.932549	0.694139	0.602354
983	C	0.93149	0.743219	0.423338
984	N	0.927782	0.751433	0.458723
985	C	0.765217	0.687755	0.342477
986	N	0.780925	0.70304	0.636239
987	C	0.809776	0.734267	0.633216
988	C	0.827195	0.750658	0.340108
989	N	0.812324	0.734721	0.379731
990	C	0.781507	0.705329	0.383028
991	H	0.821448	0.742216	0.602391
992	C	0.772196	0.69202	0.42325
993	N	0.763981	0.680078	0.458621
994	C	0.545484	0.524543	0.675151
995	C	0.527094	0.542455	0.675076
996	C	0.99079	0.5246	0.675148
997	C	0.972872	0.988311	0.67509
998	C	0.990744	0.969878	0.675158
999	C	0.52705	0.988252	0.67511
1000	H	0.946568	0.975187	0.674396
1001	H	0.540187	0.975087	0.674393
1002	H	0.540264	0.568748	0.674376
1003	C	0.744688	0.596559	0.67354
1004	C	0.76238	0.632761	0.673888
1005	C	0.744823	0.65141	0.674511
1006	C	0.708556	0.633187	0.674924
1007	C	0.690129	0.596793	0.674528
1008	C	0.708422	0.57868	0.673824
1009	H	0.695595	0.646507	0.675635
1010	H	0.695353	0.552401	0.673739
1011	H	0.788758	0.645904	0.673973
1012	C	0.919041	0.652031	0.673479
1013	C	0.88282	0.633513	0.673827
1014	C	0.864174	0.597321	0.674552
1015	C	0.882407	0.579294	0.675032
1016	C	0.918811	0.597257	0.674582
1017	C	0.936928	0.633652	0.67378
1018	H	0.86908	0.553022	0.675801
1019	H	0.963221	0.646858	0.673624
1020	H	0.869668	0.646735	0.673858
1021	C	0.86347	0.770759	0.673529
1022	C	0.881988	0.753057	0.673895
1023	C	0.918199	0.770594	0.674589
1024	C	0.936236	0.806843	0.675039
1025	C	0.918269	0.825281	0.674575
1026	C	0.88186	0.807009	0.673787
1027	H	0.962521	0.819785	0.675794
1028	H	0.868649	0.820088	0.673611
1029	H	0.868752	0.726692	0.673936
1030	C	0.581927	0.54274	0.006643
1031	N	0.599722	0.551687	0.712973
1032	C	0.634582	0.569133	0.715353
1033	N	0.636102	0.569795	0.96851
1034	C	0.601219	0.55236	0.965896
1035	H	0.646344	0.575034	0.746273
1036	C	0.587395	0.545457	0.925806
1037	N	0.575025	0.539302	0.890523
1038	C	0.97261	0.542861	0.006653
1039	N	0.96364	0.551677	0.71299
1040	C	0.94629	0.569184	0.715383
1041	N	0.945812	0.570241	0.968544
1042	C	0.963147	0.552696	0.965913
1043	H	0.940347	0.574996	0.74631
1044	C	0.970078	0.545814	0.92582
1045	N	0.976255	0.53963	0.890533
1046	C	0.972499	0.933445	0.006657
1047	N	0.963679	0.915661	0.71299
1048	C	0.946239	0.880817	0.71538
1049	N	0.945278	0.879287	0.96854
1050	C	0.962757	0.914155	0.965917
1051	H	0.940409	0.869065	0.746303
1052	C	0.969654	0.927964	0.925827
1053	N	0.975848	0.940324	0.89054
1054	C	0.827816	0.581357	0.675872
1055	N	0.812517	0.581829	0.969671
1056	C	0.781354	0.579632	0.9668
1057	C	0.764835	0.580453	0.673712
1058	N	0.780821	0.581421	0.713251
1059	C	0.810261	0.580066	0.716443
1060	H	0.773201	0.583029	0.935928
1061	C	0.823544	0.583889	0.756665
1062	N	0.835459	0.587468	0.792033
1063	C	0.934185	0.750209	0.675909
1064	N	0.933728	0.734583	0.96959
1065	C	0.935964	0.705655	0.96658
1066	C	0.935166	0.688284	0.673411
1067	N	0.93411	0.70313	0.713071
1068	C	0.935473	0.733915	0.716436
1069	H	0.932549	0.694139	0.935688
1070	C	0.93149	0.743219	0.756672
1071	N	0.927782	0.751433	0.792053
1072	C	0.765217	0.687755	0.675808
1073	N	0.780925	0.70304	0.969573
1074	C	0.809776	0.734267	0.966546
1075	C	0.827195	0.750658	0.673438
1076	N	0.812324	0.734721	0.713061
1077	C	0.781507	0.705329	0.716362
1078	H	0.821448	0.742216	0.935725
1079	C	0.772196	0.69202	0.75658
1080	N	0.763981	0.680078	0.791955
