data_C792H504N144O72_2018-02-15_10:35:37
#******************************************
#
# CIF file created by Zeo++
# Zeo++ is an open source package to
# analyze microporous materials
#
#*******************************************

_cell_length_a		46.4692   
_cell_length_b		46.4692   
_cell_length_c		29.6352   
_cell_angle_alpha		90   
_cell_angle_beta		90   
_cell_angle_gamma		120   

_symmetry_space_group_name_H-M		'P1'
_symmetry_Int_Tables_number		1
_symmetry_cell_setting		Monoclinic

loop_
_symmetry_equiv_pos_as_xyz
'+x,+y,+z'

loop_
_atom_site_label
_atom_site_type_symbol
_atom_site_fract_x
_atom_site_fract_y
_atom_site_fract_z
1	C	0.027324	0.265215	0.347641
2	C	0.046584	0.300843	0.346223
3	C	0.081426	0.318889	0.339748
4	C	0.09849	0.300856	0.337435
5	C	0.08157	0.265779	0.007135
6	C	0.046659	0.248927	0.01302
7	H	0.035463	0.31491	0.347428
8	O	0.132499	0.317944	0.338051
9	H	0.035565	0.223749	0.014261
10	C	0.11041	0.238285	0.0428
11	C	0.10068	0.249653	0.004123
12	N	0.121521	0.258958	0.301375
13	C	0.091836	0.231151	0.08603
14	H	0.10249	0.222947	0.112457
15	H	0.066185	0.211483	0.080854
16	H	0.09196	0.253405	0.098093
17	C	0.100254	0.354012	0.002284
18	C	0.109259	0.374525	0.041039
19	H	0.095824	0.365058	0.070064
20	N	0.121872	0.366009	0.300499
21	H	0.132615	0.412735	0.112449
22	C	0.027324	0.265215	0.680974
23	C	0.046584	0.300843	0.679557
24	C	0.081426	0.318889	0.673081
25	C	0.09849	0.300856	0.67077
26	C	0.08157	0.265779	0.34047
27	C	0.046659	0.248927	0.346352
28	H	0.035463	0.31491	0.680761
29	O	0.132499	0.317944	0.671384
30	H	0.035565	0.223749	0.347593
31	C	0.11041	0.238285	0.376134
32	C	0.10068	0.249653	0.337457
33	N	0.121521	0.258958	0.634708
34	C	0.091836	0.231151	0.419363
35	H	0.10249	0.222947	0.445791
36	H	0.066185	0.211483	0.414186
37	H	0.09196	0.253405	0.431426
38	C	0.100254	0.354012	0.335618
39	C	0.109259	0.374525	0.374372
40	H	0.095824	0.365058	0.403399
41	N	0.121872	0.366009	0.633831
42	H	0.132615	0.412735	0.445784
43	C	0.027324	0.265215	0.014306
44	C	0.046584	0.300843	0.01289
45	C	0.081426	0.318889	0.006415
46	C	0.09849	0.300856	0.004103
47	C	0.08157	0.265779	0.673803
48	C	0.046659	0.248927	0.679688
49	H	0.035463	0.31491	0.014094
50	O	0.132499	0.317944	0.004717
51	H	0.035565	0.223749	0.680927
52	C	0.11041	0.238285	0.709467
53	C	0.10068	0.249653	0.67079
54	N	0.121521	0.258958	0.968041
55	C	0.091836	0.231151	0.752696
56	H	0.10249	0.222947	0.779124
57	H	0.066185	0.211483	0.74752
58	H	0.09196	0.253405	0.764759
59	C	0.100254	0.354012	0.668951
60	C	0.109259	0.374525	0.707706
61	H	0.095824	0.365058	0.736732
62	N	0.121872	0.366009	0.967164
63	H	0.132615	0.412735	0.779117
64	C	0.027323	0.765216	0.347641
65	C	0.046584	0.800844	0.346223
66	C	0.081424	0.818887	0.339748
67	C	0.098491	0.800857	0.337435
68	C	0.08157	0.76578	0.007135
69	C	0.04666	0.748928	0.01302
70	H	0.035463	0.814911	0.347428
71	O	0.132499	0.817945	0.338051
72	H	0.035566	0.723749	0.014261
73	C	0.11041	0.738285	0.0428
74	C	0.100682	0.749654	0.004123
75	N	0.121522	0.758959	0.301375
76	C	0.091835	0.731151	0.08603
77	H	0.102489	0.722946	0.112457
78	H	0.066187	0.711484	0.080854
79	H	0.091959	0.753406	0.098093
80	C	0.100253	0.854011	0.002284
81	C	0.109257	0.874523	0.041039
82	H	0.095823	0.865056	0.070064
83	N	0.121872	0.86601	0.300499
84	H	0.132615	0.912733	0.112449
85	C	0.027323	0.765216	0.680974
86	C	0.046584	0.800844	0.679557
87	C	0.081424	0.818887	0.673081
88	C	0.098491	0.800857	0.67077
89	C	0.08157	0.76578	0.34047
90	C	0.04666	0.748928	0.346352
91	H	0.035463	0.814911	0.680761
92	O	0.132499	0.817945	0.671384
93	H	0.035566	0.723749	0.347593
94	C	0.11041	0.738285	0.376134
95	C	0.100682	0.749654	0.337457
96	N	0.121522	0.758959	0.634708
97	C	0.091835	0.731151	0.419363
98	H	0.102489	0.722946	0.445791
99	H	0.066187	0.711484	0.414186
100	H	0.091959	0.753406	0.431426
101	C	0.100253	0.854011	0.335618
102	C	0.109257	0.874523	0.374372
103	H	0.095823	0.865056	0.403399
104	N	0.121872	0.86601	0.633831
105	H	0.132615	0.912733	0.445784
106	C	0.027323	0.765216	0.014306
107	C	0.046584	0.800844	0.01289
108	C	0.081424	0.818887	0.006415
109	C	0.098491	0.800857	0.004103
110	C	0.08157	0.76578	0.673803
111	C	0.04666	0.748928	0.679688
112	H	0.035463	0.814911	0.014094
113	O	0.132499	0.817945	0.004717
114	H	0.035566	0.723749	0.680927
115	C	0.11041	0.738285	0.709467
116	C	0.100682	0.749654	0.67079
117	N	0.121522	0.758959	0.968041
118	C	0.091835	0.731151	0.752696
119	H	0.102489	0.722946	0.779124
120	H	0.066187	0.711484	0.74752
121	H	0.091959	0.753406	0.764759
122	C	0.100253	0.854011	0.668951
123	C	0.109257	0.874523	0.707706
124	H	0.095823	0.865056	0.736732
125	N	0.121872	0.86601	0.967164
126	H	0.132615	0.912733	0.779117
127	H	0.138911	0.321311	0.036768
128	C	0.214532	0.248761	0.346382
129	C	0.196495	0.265576	0.340014
130	C	0.214534	0.300679	0.337848
131	H	0.200467	0.22357	0.347418
132	O	0.197435	0.317587	0.338631
133	H	0.194132	0.320616	0.03738
134	C	0.214681	0.416932	0.337909
135	C	0.196539	0.433876	0.007341
136	C	0.214598	0.468803	0.013013
137	O	0.197736	0.382926	0.338685
138	H	0.226705	0.032388	0.347914
139	H	0.194734	0.376592	0.037433
140	H	0.200517	0.479908	0.013963
141	C	0.161364	0.249263	0.002514
142	C	0.140808	0.237763	0.041205
143	H	0.150222	0.233784	0.070274
144	N	0.149524	0.258944	0.300617
145	C	0.14016	0.404932	0.042802
146	C	0.161313	0.414792	0.004181
147	N	0.149869	0.394029	0.301357
148	C	0.15152	0.42344	0.086088
149	H	0.157504	0.449096	0.080971
150	H	0.173634	0.423305	0.098203
151	H	0.225742	0.129607	0.112727
152	H	0.214217	0.154362	0.081022
153	H	0.138911	0.321311	0.3701
154	C	0.214532	0.248761	0.679715
155	C	0.196495	0.265576	0.673348
156	C	0.214534	0.300679	0.671181
157	H	0.200467	0.22357	0.680751
158	O	0.197435	0.317587	0.671964
159	H	0.194132	0.320616	0.370714
160	C	0.214681	0.416932	0.671242
161	C	0.196539	0.433876	0.340676
162	C	0.214598	0.468803	0.346345
163	O	0.197736	0.382926	0.672018
164	H	0.226705	0.032388	0.681247
165	H	0.194734	0.376592	0.370765
166	H	0.200517	0.479908	0.347296
167	C	0.161364	0.249263	0.335848
168	C	0.140808	0.237763	0.374538
169	H	0.150222	0.233784	0.403608
170	N	0.149524	0.258944	0.633952
171	C	0.14016	0.404932	0.376137
172	C	0.161313	0.414792	0.337514
173	N	0.149869	0.394029	0.634691
174	C	0.15152	0.42344	0.419423
175	H	0.157504	0.449096	0.414304
176	H	0.173634	0.423305	0.431537
177	H	0.225742	0.129607	0.446061
178	H	0.214217	0.154362	0.414355
179	H	0.138911	0.321311	0.703434
180	C	0.214532	0.248761	0.013049
181	C	0.196495	0.265576	0.006681
182	C	0.214534	0.300679	0.004515
183	H	0.200467	0.22357	0.014085
184	O	0.197435	0.317587	0.005297
185	H	0.194132	0.320616	0.704048
186	C	0.214681	0.416932	0.004575
187	C	0.196539	0.433876	0.674009
188	C	0.214598	0.468803	0.679681
189	O	0.197736	0.382926	0.005351
190	H	0.226705	0.032388	0.014581
191	H	0.194734	0.376592	0.704098
192	H	0.200517	0.479908	0.68063
193	C	0.161364	0.249263	0.66918
194	C	0.140808	0.237763	0.707871
195	H	0.150222	0.233784	0.736941
196	N	0.149524	0.258944	0.967285
197	C	0.14016	0.404932	0.70947
198	C	0.161313	0.414792	0.670847
199	N	0.149869	0.394029	0.968024
200	C	0.15152	0.42344	0.752757
201	H	0.157504	0.449096	0.747638
202	H	0.173634	0.423305	0.764871
203	H	0.225742	0.129607	0.779394
204	H	0.214217	0.154362	0.747688
205	H	0.138909	0.82131	0.036768
206	C	0.214533	0.748762	0.346382
207	C	0.196495	0.765577	0.340014
208	C	0.214534	0.800678	0.337848
209	H	0.200467	0.72357	0.347418
210	O	0.197434	0.817585	0.338631
211	H	0.194133	0.820617	0.03738
212	C	0.214681	0.916933	0.337909
213	C	0.19654	0.933877	0.007341
214	C	0.214596	0.968802	0.013013
215	O	0.197737	0.882927	0.338685
216	H	0.226705	0.532389	0.347914
217	H	0.194735	0.876593	0.037433
218	H	0.200517	0.979907	0.013963
219	C	0.161364	0.749264	0.002514
220	C	0.140808	0.737764	0.041205
221	H	0.150221	0.733783	0.070274
222	N	0.149524	0.758945	0.300617
223	C	0.140161	0.904933	0.042802
224	C	0.161313	0.914791	0.004181
225	N	0.149868	0.894027	0.301357
226	C	0.151521	0.923441	0.086088
227	H	0.157504	0.949097	0.080971
228	H	0.173633	0.923304	0.098203
229	H	0.225742	0.629607	0.112727
230	H	0.214216	0.654361	0.081022
231	H	0.138909	0.82131	0.3701
232	C	0.214533	0.748762	0.679715
233	C	0.196495	0.765577	0.673348
234	C	0.214534	0.800678	0.671181
235	H	0.200467	0.72357	0.680751
236	O	0.197434	0.817585	0.671964
237	H	0.194133	0.820617	0.370714
238	C	0.214681	0.916933	0.671242
239	C	0.19654	0.933877	0.340676
240	C	0.214596	0.968802	0.346345
241	O	0.197737	0.882927	0.672018
242	H	0.226705	0.532389	0.681247
243	H	0.194735	0.876593	0.370765
244	H	0.200517	0.979907	0.347296
245	C	0.161364	0.749264	0.335848
246	C	0.140808	0.737764	0.374538
247	H	0.150221	0.733783	0.403608
248	N	0.149524	0.758945	0.633952
249	C	0.140161	0.904933	0.376137
250	C	0.161313	0.914791	0.337514
251	N	0.149868	0.894027	0.634691
252	C	0.151521	0.923441	0.419423
253	H	0.157504	0.949097	0.414304
254	H	0.173633	0.923304	0.431537
255	H	0.225742	0.629607	0.446061
256	H	0.214216	0.654361	0.414355
257	H	0.138909	0.82131	0.703434
258	C	0.214533	0.748762	0.013049
259	C	0.196495	0.765577	0.006681
260	C	0.214534	0.800678	0.004515
261	H	0.200467	0.72357	0.014085
262	O	0.197434	0.817585	0.005297
263	H	0.194133	0.820617	0.704048
264	C	0.214681	0.916933	0.004575
265	C	0.19654	0.933877	0.674009
266	C	0.214596	0.968802	0.679681
267	O	0.197737	0.882927	0.005351
268	H	0.226705	0.532389	0.014581
269	H	0.194735	0.876593	0.704098
270	H	0.200517	0.979907	0.68063
271	C	0.161364	0.749264	0.66918
272	C	0.140808	0.737764	0.707871
273	H	0.150221	0.733783	0.736941
274	N	0.149524	0.758945	0.967285
275	C	0.140161	0.904933	0.70947
276	C	0.161313	0.914791	0.670847
277	N	0.149868	0.894027	0.968024
278	C	0.151521	0.923441	0.752757
279	H	0.157504	0.949097	0.747638
280	H	0.173633	0.923304	0.764871
281	H	0.225742	0.629607	0.779394
282	H	0.214216	0.654361	0.747688
283	H	0.226799	0.197427	0.014429
284	H	0.226799	0.197427	0.347762
285	H	0.226799	0.197427	0.681095
286	H	0.226799	0.697427	0.014429
287	H	0.226799	0.697427	0.347762
288	H	0.226799	0.697427	0.681095
289	C	0.250162	0.265126	0.347786
290	C	0.249614	0.318822	0.00747
291	C	0.266456	0.300747	0.013231
292	C	0.268273	0.247125	0.347779
293	C	0.251978	0.211503	0.013209
294	C	0.268818	0.19343	0.007392
295	H	0.291633	0.314823	0.014564
296	C	0.250219	0.488123	0.347776
297	C	0.266577	0.468853	0.346564
298	C	0.249784	0.434005	0.340173
299	H	0.291759	0.479968	0.347954
300	C	0.268249	0.024235	0.347755
301	C	0.268676	0.078343	0.340041
302	C	0.251888	0.043506	0.346551
303	C	0.266135	0.415215	0.00303
304	C	0.277569	0.406068	0.041673
305	C	0.277167	0.375216	0.043254
306	C	0.265819	0.35406	0.004653
307	N	0.256373	0.365572	0.301992
308	H	0.281761	0.419586	0.070672
309	N	0.256373	0.393581	0.301218
310	C	0.28441	0.363815	0.08643
311	H	0.292588	0.382663	0.112867
312	H	0.262211	0.341638	0.098519
313	C	0.252326	0.097135	0.002888
314	C	0.240845	0.106246	0.041527
315	C	0.241214	0.137082	0.043148
316	C	0.252601	0.158178	0.004511
317	N	0.26208	0.146777	0.30179
318	H	0.236641	0.092713	0.070512
319	N	0.26209	0.11877	0.301067
320	C	0.233937	0.148468	0.086306
321	H	0.256124	0.170642	0.098426
322	C	0.250162	0.265126	0.681119
323	C	0.249614	0.318822	0.340804
324	C	0.266456	0.300747	0.346564
325	C	0.268273	0.247125	0.681112
326	C	0.251978	0.211503	0.346544
327	C	0.268818	0.19343	0.340726
328	H	0.291633	0.314823	0.347897
329	C	0.250219	0.488123	0.681109
330	C	0.266577	0.468853	0.679897
331	C	0.249784	0.434005	0.673506
332	H	0.291759	0.479968	0.681288
333	C	0.268249	0.024235	0.681089
334	C	0.268676	0.078343	0.673375
335	C	0.251888	0.043506	0.679884
336	C	0.266135	0.415215	0.336363
337	C	0.277569	0.406068	0.375007
338	C	0.277167	0.375216	0.376586
339	C	0.265819	0.35406	0.337986
340	N	0.256373	0.365572	0.635325
341	H	0.281761	0.419586	0.404006
342	N	0.256373	0.393581	0.634553
343	C	0.28441	0.363815	0.419764
344	H	0.292588	0.382663	0.446199
345	H	0.262211	0.341638	0.431851
346	C	0.252326	0.097135	0.336221
347	C	0.240845	0.106246	0.374862
348	C	0.241214	0.137082	0.376481
349	C	0.252601	0.158178	0.337845
350	N	0.26208	0.146777	0.635123
351	H	0.236641	0.092713	0.403847
352	N	0.26209	0.11877	0.634401
353	C	0.233937	0.148468	0.419639
354	H	0.256124	0.170642	0.43176
355	C	0.250162	0.265126	0.014451
356	C	0.249614	0.318822	0.674137
357	C	0.266456	0.300747	0.679897
358	C	0.268273	0.247125	0.014445
359	C	0.251978	0.211503	0.679877
360	C	0.268818	0.19343	0.67406
361	H	0.291633	0.314823	0.68123
362	C	0.250219	0.488123	0.014442
363	C	0.266577	0.468853	0.013232
364	C	0.249784	0.434005	0.006839
365	H	0.291759	0.479968	0.014622
366	C	0.268249	0.024235	0.014422
367	C	0.268676	0.078343	0.006707
368	C	0.251888	0.043506	0.013216
369	C	0.266135	0.415215	0.669697
370	C	0.277569	0.406068	0.70834
371	C	0.277167	0.375216	0.709919
372	C	0.265819	0.35406	0.67132
373	N	0.256373	0.365572	0.968659
374	H	0.281761	0.419586	0.737339
375	N	0.256373	0.393581	0.967886
376	C	0.28441	0.363815	0.753097
377	H	0.292588	0.382663	0.779532
378	H	0.262211	0.341638	0.765184
379	C	0.252326	0.097135	0.669555
380	C	0.240845	0.106246	0.708195
381	C	0.241214	0.137082	0.709814
382	C	0.252601	0.158178	0.671178
383	N	0.26208	0.146777	0.968456
384	H	0.236641	0.092713	0.737181
385	N	0.26209	0.11877	0.967734
386	C	0.233937	0.148468	0.752973
387	H	0.256124	0.170642	0.765093
388	C	0.250162	0.765124	0.347786
389	C	0.249615	0.818823	0.00747
390	C	0.266456	0.800748	0.013231
391	C	0.268272	0.747124	0.347779
392	C	0.251978	0.711503	0.013209
393	C	0.268818	0.693431	0.007392
394	H	0.291632	0.814822	0.014564
395	C	0.250219	0.988124	0.347776
396	C	0.266576	0.968852	0.346564
397	C	0.249783	0.934004	0.340173
398	H	0.29176	0.979969	0.347954
399	C	0.268248	0.524236	0.347755
400	C	0.268676	0.578342	0.340041
401	C	0.251888	0.543506	0.346551
402	C	0.266134	0.915213	0.00303
403	C	0.27757	0.906069	0.041673
404	C	0.277167	0.875217	0.043254
405	C	0.265819	0.854061	0.004653
406	N	0.256372	0.86557	0.301992
407	H	0.281761	0.919587	0.070672
408	N	0.256372	0.89358	0.301218
409	C	0.284409	0.863814	0.08643
410	H	0.292588	0.882664	0.112867
411	H	0.262211	0.841639	0.098519
412	C	0.252326	0.597135	0.002888
413	C	0.240846	0.606247	0.041527
414	C	0.241213	0.637081	0.043148
415	C	0.252601	0.658178	0.004511
416	N	0.262081	0.646777	0.30179
417	H	0.236641	0.592712	0.070512
418	N	0.26209	0.61877	0.301067
419	C	0.233936	0.648467	0.086306
420	H	0.256124	0.670642	0.098426
421	C	0.250162	0.765124	0.681119
422	C	0.249615	0.818823	0.340804
423	C	0.266456	0.800748	0.346564
424	C	0.268272	0.747124	0.681112
425	C	0.251978	0.711503	0.346544
426	C	0.268818	0.693431	0.340726
427	H	0.291632	0.814822	0.347897
428	C	0.250219	0.988124	0.681109
429	C	0.266576	0.968852	0.679897
430	C	0.249783	0.934004	0.673506
431	H	0.29176	0.979969	0.681288
432	C	0.268248	0.524236	0.681089
433	C	0.268676	0.578342	0.673375
434	C	0.251888	0.543506	0.679884
435	C	0.266134	0.915213	0.336363
436	C	0.27757	0.906069	0.375007
437	C	0.277167	0.875217	0.376586
438	C	0.265819	0.854061	0.337986
439	N	0.256372	0.86557	0.635325
440	H	0.281761	0.919587	0.404006
441	N	0.256372	0.89358	0.634553
442	C	0.284409	0.863814	0.419764
443	H	0.292588	0.882664	0.446199
444	H	0.262211	0.841639	0.431851
445	C	0.252326	0.597135	0.336221
446	C	0.240846	0.606247	0.374862
447	C	0.241213	0.637081	0.376481
448	C	0.252601	0.658178	0.337845
449	N	0.262081	0.646777	0.635123
450	H	0.236641	0.592712	0.403847
451	N	0.26209	0.61877	0.634401
452	C	0.233936	0.648467	0.419639
453	H	0.256124	0.670642	0.43176
454	C	0.250162	0.765124	0.014451
455	C	0.249615	0.818823	0.674137
456	C	0.266456	0.800748	0.679897
457	C	0.268272	0.747124	0.014445
458	C	0.251978	0.711503	0.679877
459	C	0.268818	0.693431	0.67406
460	H	0.291632	0.814822	0.68123
461	C	0.250219	0.988124	0.014442
462	C	0.266576	0.968852	0.013232
463	C	0.249783	0.934004	0.006839
464	H	0.29176	0.979969	0.014622
465	C	0.268248	0.524236	0.014422
466	C	0.268676	0.578342	0.006707
467	C	0.251888	0.543506	0.013216
468	C	0.266134	0.915213	0.669697
469	C	0.27757	0.906069	0.70834
470	C	0.277167	0.875217	0.709919
471	C	0.265819	0.854061	0.67132
472	N	0.256372	0.86557	0.968659
473	H	0.281761	0.919587	0.737339
474	N	0.256372	0.89358	0.967886
475	C	0.284409	0.863814	0.753097
476	H	0.292588	0.882664	0.779532
477	H	0.262211	0.841639	0.765184
478	C	0.252326	0.597135	0.669555
479	C	0.240846	0.606247	0.708195
480	C	0.241213	0.637081	0.709814
481	C	0.252601	0.658178	0.671178
482	N	0.262081	0.646777	0.968456
483	H	0.236641	0.592712	0.737181
484	N	0.26209	0.61877	0.967734
485	C	0.233936	0.648467	0.752973
486	H	0.256124	0.670642	0.765093
487	C	0.49121	0.247112	0.347674
488	C	0.471882	0.263409	0.013092
489	C	0.436964	0.246575	0.007309
490	C	0.420031	0.211494	0.337696
491	C	0.437085	0.193449	0.33991
492	C	0.47194	0.211481	0.346284
493	O	0.386022	0.19441	0.338462
494	H	0.483066	0.197416	0.347333
495	H	0.37968	0.191086	0.037205
496	H	0.482985	0.288588	0.014365
497	C	0.303904	0.211575	0.337825
498	C	0.321942	0.246673	0.340052
499	C	0.303902	0.263488	0.346382
500	O	0.320976	0.194641	0.338617
501	H	0.317967	0.288678	0.347553
502	H	0.324302	0.191638	0.037368
503	C	0.30387	0.043555	0.012975
504	C	0.321931	0.078478	0.007256
505	C	0.303777	0.095404	0.33773
506	O	0.320708	0.129412	0.338523
507	H	0.32375	0.135742	0.037272
508	H	0.31795	0.032452	0.014006
509	H	0.30413	0.357916	0.081176
510	C	0.357059	0.262964	0.002665
511	C	0.377645	0.274442	0.041367
512	C	0.4081	0.274052	0.043061
513	C	0.417923	0.262788	0.00442
514	N	0.397101	0.253358	0.301645
515	H	0.368201	0.278495	0.070356
516	N	0.369061	0.253303	0.3009
517	C	0.426643	0.281203	0.08631
518	H	0.415916	0.289339	0.112722
519	H	0.452276	0.300923	0.081174
520	H	0.426579	0.258976	0.098357
521	C	0.418246	0.158332	0.002372
522	C	0.409211	0.137769	0.041077
523	C	0.378302	0.107365	0.042776
524	C	0.357161	0.097574	0.004143
525	N	0.368634	0.118384	0.301369
526	H	0.422637	0.147194	0.070117
527	N	0.396641	0.146393	0.300567
528	C	0.366917	0.088808	0.086023
529	H	0.38581	0.09948	0.112404
530	H	0.360932	0.063156	0.08085
531	H	0.344799	0.088933	0.098143
532	C	0.49121	0.247112	0.681008
533	C	0.471882	0.263409	0.346426
534	C	0.436964	0.246575	0.340642
535	C	0.420031	0.211494	0.67103
536	C	0.437085	0.193449	0.673243
537	C	0.47194	0.211481	0.679617
538	O	0.386022	0.19441	0.671796
539	H	0.483066	0.197416	0.680667
540	H	0.37968	0.191086	0.370539
541	H	0.482985	0.288588	0.347698
542	C	0.303904	0.211575	0.671158
543	C	0.321942	0.246673	0.673385
544	C	0.303902	0.263488	0.679715
545	O	0.320976	0.194641	0.671951
546	H	0.317967	0.288678	0.680886
547	H	0.324302	0.191638	0.370701
548	C	0.30387	0.043555	0.346308
549	C	0.321931	0.078478	0.340588
550	C	0.303777	0.095404	0.671063
551	O	0.320708	0.129412	0.671856
552	H	0.32375	0.135742	0.370606
553	H	0.31795	0.032452	0.34734
554	H	0.30413	0.357916	0.41451
555	C	0.357059	0.262964	0.336
556	C	0.377645	0.274442	0.3747
557	C	0.4081	0.274052	0.376394
558	C	0.417923	0.262788	0.337754
559	N	0.397101	0.253358	0.634978
560	H	0.368201	0.278495	0.403689
561	N	0.369061	0.253303	0.634232
562	C	0.426643	0.281203	0.419643
563	H	0.415916	0.289339	0.446057
564	H	0.452276	0.300923	0.414507
565	H	0.426579	0.258976	0.431689
566	C	0.418246	0.158332	0.335704
567	C	0.409211	0.137769	0.374409
568	C	0.378302	0.107365	0.37611
569	C	0.357161	0.097574	0.337477
570	N	0.368634	0.118384	0.634701
571	H	0.422637	0.147194	0.403449
572	N	0.396641	0.146393	0.633901
573	C	0.366917	0.088808	0.419356
574	H	0.38581	0.09948	0.445737
575	H	0.360932	0.063156	0.414183
576	H	0.344799	0.088933	0.431477
577	C	0.49121	0.247112	0.01434
578	C	0.471882	0.263409	0.679759
579	C	0.436964	0.246575	0.673975
580	C	0.420031	0.211494	0.004363
581	C	0.437085	0.193449	0.006576
582	C	0.47194	0.211481	0.01295
583	O	0.386022	0.19441	0.005129
584	H	0.483066	0.197416	0.013999
585	H	0.37968	0.191086	0.703872
586	H	0.482985	0.288588	0.681031
587	C	0.303904	0.211575	0.004491
588	C	0.321942	0.246673	0.006719
589	C	0.303902	0.263488	0.01305
590	O	0.320976	0.194641	0.005284
591	H	0.317967	0.288678	0.014219
592	H	0.324302	0.191638	0.704034
593	C	0.30387	0.043555	0.679641
594	C	0.321931	0.078478	0.673921
595	C	0.303777	0.095404	0.004397
596	O	0.320708	0.129412	0.00519
597	H	0.32375	0.135742	0.70394
598	H	0.31795	0.032452	0.680673
599	H	0.30413	0.357916	0.747844
600	C	0.357059	0.262964	0.669332
601	C	0.377645	0.274442	0.708033
602	C	0.4081	0.274052	0.709727
603	C	0.417923	0.262788	0.671087
604	N	0.397101	0.253358	0.968311
605	H	0.368201	0.278495	0.737022
606	N	0.369061	0.253303	0.967565
607	C	0.426643	0.281203	0.752976
608	H	0.415916	0.289339	0.779391
609	H	0.452276	0.300923	0.74784
610	H	0.426579	0.258976	0.765022
611	C	0.418246	0.158332	0.669039
612	C	0.409211	0.137769	0.707743
613	C	0.378302	0.107365	0.709443
614	C	0.357161	0.097574	0.67081
615	N	0.368634	0.118384	0.968034
616	H	0.422637	0.147194	0.736786
617	N	0.396641	0.146393	0.967235
618	C	0.366917	0.088808	0.752689
619	H	0.38581	0.09948	0.77907
620	H	0.360932	0.063156	0.747516
621	H	0.344799	0.088933	0.76481
622	C	0.49121	0.747112	0.347674
623	C	0.471883	0.76341	0.013092
624	C	0.436965	0.746575	0.007309
625	C	0.420031	0.711493	0.337696
626	C	0.437086	0.693448	0.33991
627	C	0.47194	0.711481	0.346284
628	O	0.386023	0.69441	0.338462
629	H	0.483067	0.697417	0.347333
630	H	0.37968	0.691085	0.037205
631	H	0.482984	0.788587	0.014365
632	C	0.303904	0.711575	0.337825
633	C	0.321942	0.746674	0.340052
634	C	0.303901	0.763487	0.346382
635	O	0.320976	0.694641	0.338617
636	H	0.317966	0.788676	0.347553
637	H	0.324302	0.691639	0.037368
638	C	0.30387	0.543556	0.012975
639	C	0.321932	0.578478	0.007256
640	C	0.303777	0.595403	0.33773
641	O	0.320709	0.629413	0.338523
642	H	0.323749	0.635742	0.037272
643	H	0.317949	0.532451	0.014006
644	H	0.30413	0.857917	0.081176
645	C	0.357059	0.762963	0.002665
646	C	0.377643	0.77444	0.041367
647	C	0.408099	0.77405	0.043061
648	C	0.417923	0.762786	0.00442
649	N	0.3971	0.753356	0.301645
650	H	0.368202	0.778496	0.070356
651	N	0.369063	0.753304	0.3009
652	C	0.426643	0.781204	0.08631
653	H	0.415916	0.78934	0.112722
654	H	0.452277	0.800924	0.081174
655	H	0.426579	0.758974	0.098357
656	C	0.418248	0.658332	0.002372
657	C	0.40921	0.637767	0.041077
658	C	0.378301	0.607365	0.042776
659	C	0.357161	0.597574	0.004143
660	N	0.368633	0.618383	0.301369
661	H	0.422638	0.647195	0.070117
662	N	0.39664	0.646392	0.300567
663	C	0.366917	0.588808	0.086023
664	H	0.38581	0.59948	0.112404
665	H	0.360932	0.563157	0.08085
666	H	0.344799	0.588932	0.098143
667	C	0.49121	0.747112	0.681008
668	C	0.471883	0.76341	0.346426
669	C	0.436965	0.746575	0.340642
670	C	0.420031	0.711493	0.67103
671	C	0.437086	0.693448	0.673243
672	C	0.47194	0.711481	0.679617
673	O	0.386023	0.69441	0.671796
674	H	0.483067	0.697417	0.680667
675	H	0.37968	0.691085	0.370539
676	H	0.482984	0.788587	0.347698
677	C	0.303904	0.711575	0.671158
678	C	0.321942	0.746674	0.673385
679	C	0.303901	0.763487	0.679715
680	O	0.320976	0.694641	0.671951
681	H	0.317966	0.788676	0.680886
682	H	0.324302	0.691639	0.370701
683	C	0.30387	0.543556	0.346308
684	C	0.321932	0.578478	0.340588
685	C	0.303777	0.595403	0.671063
686	O	0.320709	0.629413	0.671856
687	H	0.323749	0.635742	0.370606
688	H	0.317949	0.532451	0.34734
689	H	0.30413	0.857917	0.41451
690	C	0.357059	0.762963	0.336
691	C	0.377643	0.77444	0.3747
692	C	0.408099	0.77405	0.376394
693	C	0.417923	0.762786	0.337754
694	N	0.3971	0.753356	0.634978
695	H	0.368202	0.778496	0.403689
696	N	0.369063	0.753304	0.634232
697	C	0.426643	0.781204	0.419643
698	H	0.415916	0.78934	0.446057
699	H	0.452277	0.800924	0.414507
700	H	0.426579	0.758974	0.431689
701	C	0.418248	0.658332	0.335704
702	C	0.40921	0.637767	0.374409
703	C	0.378301	0.607365	0.37611
704	C	0.357161	0.597574	0.337477
705	N	0.368633	0.618383	0.634701
706	H	0.422638	0.647195	0.403449
707	N	0.39664	0.646392	0.633901
708	C	0.366917	0.588808	0.419356
709	H	0.38581	0.59948	0.445737
710	H	0.360932	0.563157	0.414183
711	H	0.344799	0.588932	0.431477
712	C	0.49121	0.747112	0.01434
713	C	0.471883	0.76341	0.679759
714	C	0.436965	0.746575	0.673975
715	C	0.420031	0.711493	0.004363
716	C	0.437086	0.693448	0.006576
717	C	0.47194	0.711481	0.01295
718	O	0.386023	0.69441	0.005129
719	H	0.483067	0.697417	0.013999
720	H	0.37968	0.691085	0.703872
721	H	0.482984	0.788587	0.681031
722	C	0.303904	0.711575	0.004491
723	C	0.321942	0.746674	0.006719
724	C	0.303901	0.763487	0.01305
725	O	0.320976	0.694641	0.005284
726	H	0.317966	0.788676	0.014219
727	H	0.324302	0.691639	0.704034
728	C	0.30387	0.543556	0.679641
729	C	0.321932	0.578478	0.673921
730	C	0.303777	0.595403	0.004397
731	O	0.320709	0.629413	0.00519
732	H	0.323749	0.635742	0.70394
733	H	0.317949	0.532451	0.680673
734	H	0.30413	0.857917	0.747844
735	C	0.357059	0.762963	0.669332
736	C	0.377643	0.77444	0.708033
737	C	0.408099	0.77405	0.709727
738	C	0.417923	0.762786	0.671087
739	N	0.3971	0.753356	0.968311
740	H	0.368202	0.778496	0.737022
741	N	0.369063	0.753304	0.967565
742	C	0.426643	0.781204	0.752976
743	H	0.415916	0.78934	0.779391
744	H	0.452277	0.800924	0.74784
745	H	0.426579	0.758974	0.765022
746	C	0.418248	0.658332	0.669039
747	C	0.40921	0.637767	0.707743
748	C	0.378301	0.607365	0.709443
749	C	0.357161	0.597574	0.67081
750	N	0.368633	0.618383	0.968034
751	H	0.422638	0.647195	0.736786
752	N	0.39664	0.646392	0.967235
753	C	0.366917	0.588808	0.752689
754	H	0.38581	0.59948	0.77907
755	H	0.360932	0.563157	0.747516
756	H	0.344799	0.588932	0.76481
757	C	0.527323	0.265215	0.347641
758	C	0.546583	0.300843	0.346223
759	C	0.581425	0.318889	0.339748
760	C	0.59849	0.300856	0.337435
761	C	0.58157	0.265779	0.007135
762	C	0.546659	0.248927	0.01302
763	H	0.535463	0.31491	0.347428
764	O	0.632499	0.317944	0.338051
765	C	0.99121	0.247112	0.347674
766	C	0.971882	0.263409	0.013092
767	C	0.936964	0.246575	0.007309
768	C	0.920031	0.211494	0.337696
769	C	0.937085	0.193449	0.33991
770	C	0.97194	0.211481	0.346284
771	O	0.886022	0.19441	0.338462
772	H	0.983066	0.197416	0.347333
773	H	0.63891	0.321311	0.036768
774	H	0.87968	0.191086	0.037205
775	H	0.535566	0.223749	0.014261
776	H	0.982985	0.288588	0.014365
777	C	0.750163	0.265126	0.347786
778	C	0.714532	0.248761	0.346382
779	C	0.696495	0.265576	0.340014
780	C	0.714535	0.300679	0.337848
781	C	0.749615	0.318822	0.00747
782	C	0.766457	0.300747	0.013231
783	H	0.700467	0.22357	0.347418
784	O	0.697436	0.317587	0.338631
785	C	0.768273	0.247125	0.347779
786	C	0.751978	0.211503	0.013209
787	C	0.768818	0.19343	0.007392
788	C	0.803904	0.211575	0.337825
789	C	0.821941	0.246673	0.340052
790	C	0.803901	0.263488	0.346382
791	O	0.820976	0.194641	0.338617
792	H	0.817968	0.288678	0.347553
793	H	0.694132	0.320616	0.03738
794	H	0.824302	0.191638	0.037368
795	H	0.791634	0.314823	0.014564
796	H	0.726798	0.197427	0.014429
797	C	0.750218	0.488123	0.347776
798	C	0.766577	0.468853	0.346564
799	C	0.749784	0.434005	0.340173
800	C	0.714681	0.416932	0.337909
801	C	0.69654	0.433876	0.007341
802	C	0.714597	0.468803	0.013013
803	H	0.79176	0.479968	0.347954
804	O	0.697736	0.382926	0.338685
805	C	0.768249	0.024235	0.347755
806	C	0.80387	0.043555	0.012975
807	C	0.821931	0.078478	0.007256
808	C	0.803777	0.095404	0.33773
809	C	0.768676	0.078343	0.340041
810	C	0.751888	0.043506	0.346551
811	O	0.820708	0.129412	0.338523
812	H	0.726706	0.032388	0.347914
813	H	0.694735	0.376592	0.037433
814	H	0.82375	0.135742	0.037272
815	H	0.700517	0.479908	0.013963
816	H	0.81795	0.032452	0.014006
817	C	0.661363	0.249263	0.002514
818	C	0.640808	0.237763	0.041205
819	C	0.61041	0.238285	0.0428
820	C	0.600681	0.249653	0.004123
821	N	0.621521	0.258958	0.301375
822	H	0.650222	0.233784	0.070274
823	N	0.649524	0.258944	0.300617
824	C	0.591835	0.231151	0.08603
825	H	0.602489	0.222947	0.112457
826	H	0.566186	0.211483	0.080854
827	H	0.591959	0.253405	0.098093
828	C	0.766134	0.415215	0.00303
829	C	0.777569	0.406068	0.041673
830	C	0.777166	0.375216	0.043254
831	C	0.76582	0.35406	0.004653
832	N	0.756372	0.365572	0.301992
833	H	0.781761	0.419586	0.070672
834	N	0.756372	0.393581	0.301218
835	C	0.78441	0.363815	0.08643
836	H	0.792588	0.382663	0.112867
837	H	0.804129	0.357916	0.081176
838	H	0.762211	0.341638	0.098519
839	C	0.600254	0.354012	0.002284
840	C	0.609258	0.374525	0.041039
841	C	0.64016	0.404932	0.042802
842	C	0.661314	0.414792	0.004181
843	N	0.649869	0.394029	0.301357
844	H	0.595824	0.365058	0.070064
845	N	0.621872	0.366009	0.300499
846	C	0.651521	0.42344	0.086088
847	H	0.632615	0.412735	0.112449
848	H	0.657504	0.449096	0.080971
849	H	0.673634	0.423305	0.098203
850	C	0.857059	0.262964	0.002665
851	C	0.877645	0.274442	0.041367
852	C	0.9081	0.274052	0.043061
853	C	0.917923	0.262788	0.00442
854	N	0.897101	0.253358	0.301645
855	H	0.868201	0.278495	0.070356
856	N	0.869061	0.253303	0.3009
857	C	0.926643	0.281203	0.08631
858	H	0.915916	0.289339	0.112722
859	H	0.952276	0.300923	0.081174
860	H	0.926579	0.258976	0.098357
861	C	0.752326	0.097135	0.002888
862	C	0.740845	0.106246	0.041527
863	C	0.741214	0.137082	0.043148
864	C	0.752602	0.158178	0.004511
865	N	0.762081	0.146777	0.30179
866	H	0.736641	0.092713	0.070512
867	N	0.762089	0.11877	0.301067
868	C	0.733936	0.148468	0.086306
869	H	0.725742	0.129607	0.112727
870	H	0.714216	0.154362	0.081022
871	H	0.756124	0.170642	0.098426
872	C	0.918246	0.158332	0.002372
873	C	0.909211	0.137769	0.041077
874	C	0.878302	0.107365	0.042776
875	C	0.857161	0.097574	0.004143
876	N	0.868634	0.118384	0.301369
877	H	0.922637	0.147194	0.070117
878	N	0.896641	0.146393	0.300567
879	C	0.866917	0.088808	0.086023
880	H	0.88581	0.09948	0.112404
881	H	0.860932	0.063156	0.08085
882	H	0.844799	0.088933	0.098143
883	C	0.527323	0.265215	0.680974
884	C	0.546583	0.300843	0.679557
885	C	0.581425	0.318889	0.673081
886	C	0.59849	0.300856	0.67077
887	C	0.58157	0.265779	0.34047
888	C	0.546659	0.248927	0.346352
889	H	0.535463	0.31491	0.680761
890	O	0.632499	0.317944	0.671384
891	C	0.99121	0.247112	0.681008
892	C	0.971882	0.263409	0.346426
893	C	0.936964	0.246575	0.340642
894	C	0.920031	0.211494	0.67103
895	C	0.937085	0.193449	0.673243
896	C	0.97194	0.211481	0.679617
897	O	0.886022	0.19441	0.671796
898	H	0.983066	0.197416	0.680667
899	H	0.63891	0.321311	0.3701
900	H	0.87968	0.191086	0.370539
901	H	0.535566	0.223749	0.347593
902	H	0.982985	0.288588	0.347698
903	C	0.750163	0.265126	0.681119
904	C	0.714532	0.248761	0.679715
905	C	0.696495	0.265576	0.673348
906	C	0.714535	0.300679	0.671181
907	C	0.749615	0.318822	0.340804
908	C	0.766457	0.300747	0.346564
909	H	0.700467	0.22357	0.680751
910	O	0.697436	0.317587	0.671964
911	C	0.768273	0.247125	0.681112
912	C	0.751978	0.211503	0.346544
913	C	0.768818	0.19343	0.340726
914	C	0.803904	0.211575	0.671158
915	C	0.821941	0.246673	0.673385
916	C	0.803901	0.263488	0.679715
917	O	0.820976	0.194641	0.671951
918	H	0.817968	0.288678	0.680886
919	H	0.694132	0.320616	0.370714
920	H	0.824302	0.191638	0.370701
921	H	0.791634	0.314823	0.347897
922	H	0.726798	0.197427	0.347762
923	C	0.750218	0.488123	0.681109
924	C	0.766577	0.468853	0.679897
925	C	0.749784	0.434005	0.673506
926	C	0.714681	0.416932	0.671242
927	C	0.69654	0.433876	0.340676
928	C	0.714597	0.468803	0.346345
929	H	0.79176	0.479968	0.681288
930	O	0.697736	0.382926	0.672018
931	C	0.768249	0.024235	0.681089
932	C	0.80387	0.043555	0.346308
933	C	0.821931	0.078478	0.340588
934	C	0.803777	0.095404	0.671063
935	C	0.768676	0.078343	0.673375
936	C	0.751888	0.043506	0.679884
937	O	0.820708	0.129412	0.671856
938	H	0.726706	0.032388	0.681247
939	H	0.694735	0.376592	0.370765
940	H	0.82375	0.135742	0.370606
941	H	0.700517	0.479908	0.347296
942	H	0.81795	0.032452	0.34734
943	C	0.661363	0.249263	0.335848
944	C	0.640808	0.237763	0.374538
945	C	0.61041	0.238285	0.376134
946	C	0.600681	0.249653	0.337457
947	N	0.621521	0.258958	0.634708
948	H	0.650222	0.233784	0.403608
949	N	0.649524	0.258944	0.633952
950	C	0.591835	0.231151	0.419363
951	H	0.602489	0.222947	0.445791
952	H	0.566186	0.211483	0.414186
953	H	0.591959	0.253405	0.431426
954	C	0.766134	0.415215	0.336363
955	C	0.777569	0.406068	0.375007
956	C	0.777166	0.375216	0.376586
957	C	0.76582	0.35406	0.337986
958	N	0.756372	0.365572	0.635325
959	H	0.781761	0.419586	0.404006
960	N	0.756372	0.393581	0.634553
961	C	0.78441	0.363815	0.419764
962	H	0.792588	0.382663	0.446199
963	H	0.804129	0.357916	0.41451
964	H	0.762211	0.341638	0.431851
965	C	0.600254	0.354012	0.335618
966	C	0.609258	0.374525	0.374372
967	C	0.64016	0.404932	0.376137
968	C	0.661314	0.414792	0.337514
969	N	0.649869	0.394029	0.634691
970	H	0.595824	0.365058	0.403399
971	N	0.621872	0.366009	0.633831
972	C	0.651521	0.42344	0.419423
973	H	0.632615	0.412735	0.445784
974	H	0.657504	0.449096	0.414304
975	H	0.673634	0.423305	0.431537
976	C	0.857059	0.262964	0.336
977	C	0.877645	0.274442	0.3747
978	C	0.9081	0.274052	0.376394
979	C	0.917923	0.262788	0.337754
980	N	0.897101	0.253358	0.634978
981	H	0.868201	0.278495	0.403689
982	N	0.869061	0.253303	0.634232
983	C	0.926643	0.281203	0.419643
984	H	0.915916	0.289339	0.446057
985	H	0.952276	0.300923	0.414507
986	H	0.926579	0.258976	0.431689
987	C	0.752326	0.097135	0.336221
988	C	0.740845	0.106246	0.374862
989	C	0.741214	0.137082	0.376481
990	C	0.752602	0.158178	0.337845
991	N	0.762081	0.146777	0.635123
992	H	0.736641	0.092713	0.403847
993	N	0.762089	0.11877	0.634401
994	C	0.733936	0.148468	0.419639
995	H	0.725742	0.129607	0.446061
996	H	0.714216	0.154362	0.414355
997	H	0.756124	0.170642	0.43176
998	C	0.918246	0.158332	0.335704
999	C	0.909211	0.137769	0.374409
1000	C	0.878302	0.107365	0.37611
1001	C	0.857161	0.097574	0.337477
1002	N	0.868634	0.118384	0.634701
1003	H	0.922637	0.147194	0.403449
1004	N	0.896641	0.146393	0.633901
1005	C	0.866917	0.088808	0.419356
1006	H	0.88581	0.09948	0.445737
1007	H	0.860932	0.063156	0.414183
1008	H	0.844799	0.088933	0.431477
1009	C	0.527323	0.265215	0.014306
1010	C	0.546583	0.300843	0.01289
1011	C	0.581425	0.318889	0.006415
1012	C	0.59849	0.300856	0.004103
1013	C	0.58157	0.265779	0.673803
1014	C	0.546659	0.248927	0.679688
1015	H	0.535463	0.31491	0.014094
1016	O	0.632499	0.317944	0.004717
1017	C	0.99121	0.247112	0.01434
1018	C	0.971882	0.263409	0.679759
1019	C	0.936964	0.246575	0.673975
1020	C	0.920031	0.211494	0.004363
1021	C	0.937085	0.193449	0.006576
1022	C	0.97194	0.211481	0.01295
1023	O	0.886022	0.19441	0.005129
1024	H	0.983066	0.197416	0.013999
1025	H	0.63891	0.321311	0.703434
1026	H	0.87968	0.191086	0.703872
1027	H	0.535566	0.223749	0.680927
1028	H	0.982985	0.288588	0.681031
1029	C	0.750163	0.265126	0.014451
1030	C	0.714532	0.248761	0.013049
1031	C	0.696495	0.265576	0.006681
1032	C	0.714535	0.300679	0.004515
1033	C	0.749615	0.318822	0.674137
1034	C	0.766457	0.300747	0.679897
1035	H	0.700467	0.22357	0.014085
1036	O	0.697436	0.317587	0.005297
1037	C	0.768273	0.247125	0.014445
1038	C	0.751978	0.211503	0.679877
1039	C	0.768818	0.19343	0.67406
1040	C	0.803904	0.211575	0.004491
1041	C	0.821941	0.246673	0.006719
1042	C	0.803901	0.263488	0.01305
1043	O	0.820976	0.194641	0.005284
1044	H	0.817968	0.288678	0.014219
1045	H	0.694132	0.320616	0.704048
1046	H	0.824302	0.191638	0.704034
1047	H	0.791634	0.314823	0.68123
1048	H	0.726798	0.197427	0.681095
1049	C	0.750218	0.488123	0.014442
1050	C	0.766577	0.468853	0.013232
1051	C	0.749784	0.434005	0.006839
1052	C	0.714681	0.416932	0.004575
1053	C	0.69654	0.433876	0.674009
1054	C	0.714597	0.468803	0.679681
1055	H	0.79176	0.479968	0.014622
1056	O	0.697736	0.382926	0.005351
1057	C	0.768249	0.024235	0.014422
1058	C	0.80387	0.043555	0.679641
1059	C	0.821931	0.078478	0.673921
1060	C	0.803777	0.095404	0.004397
1061	C	0.768676	0.078343	0.006707
1062	C	0.751888	0.043506	0.013216
1063	O	0.820708	0.129412	0.00519
1064	H	0.726706	0.032388	0.014581
1065	H	0.694735	0.376592	0.704098
1066	H	0.82375	0.135742	0.70394
1067	H	0.700517	0.479908	0.68063
1068	H	0.81795	0.032452	0.680673
1069	C	0.661363	0.249263	0.66918
1070	C	0.640808	0.237763	0.707871
1071	C	0.61041	0.238285	0.709467
1072	C	0.600681	0.249653	0.67079
1073	N	0.621521	0.258958	0.968041
1074	H	0.650222	0.233784	0.736941
1075	N	0.649524	0.258944	0.967285
1076	C	0.591835	0.231151	0.752696
1077	H	0.602489	0.222947	0.779124
1078	H	0.566186	0.211483	0.74752
1079	H	0.591959	0.253405	0.764759
1080	C	0.766134	0.415215	0.669697
1081	C	0.777569	0.406068	0.70834
1082	C	0.777166	0.375216	0.709919
1083	C	0.76582	0.35406	0.67132
1084	N	0.756372	0.365572	0.968659
1085	H	0.781761	0.419586	0.737339
1086	N	0.756372	0.393581	0.967886
1087	C	0.78441	0.363815	0.753097
1088	H	0.792588	0.382663	0.779532
1089	H	0.804129	0.357916	0.747844
1090	H	0.762211	0.341638	0.765184
1091	C	0.600254	0.354012	0.668951
1092	C	0.609258	0.374525	0.707706
1093	C	0.64016	0.404932	0.70947
1094	C	0.661314	0.414792	0.670847
1095	N	0.649869	0.394029	0.968024
1096	H	0.595824	0.365058	0.736732
1097	N	0.621872	0.366009	0.967164
1098	C	0.651521	0.42344	0.752757
1099	H	0.632615	0.412735	0.779117
1100	H	0.657504	0.449096	0.747638
1101	H	0.673634	0.423305	0.764871
1102	C	0.857059	0.262964	0.669332
1103	C	0.877645	0.274442	0.708033
1104	C	0.9081	0.274052	0.709727
1105	C	0.917923	0.262788	0.671087
1106	N	0.897101	0.253358	0.968311
1107	H	0.868201	0.278495	0.737022
1108	N	0.869061	0.253303	0.967565
1109	C	0.926643	0.281203	0.752976
1110	H	0.915916	0.289339	0.779391
1111	H	0.952276	0.300923	0.74784
1112	H	0.926579	0.258976	0.765022
1113	C	0.752326	0.097135	0.669555
1114	C	0.740845	0.106246	0.708195
1115	C	0.741214	0.137082	0.709814
1116	C	0.752602	0.158178	0.671178
1117	N	0.762081	0.146777	0.968456
1118	H	0.736641	0.092713	0.737181
1119	N	0.762089	0.11877	0.967734
1120	C	0.733936	0.148468	0.752973
1121	H	0.725742	0.129607	0.779394
1122	H	0.714216	0.154362	0.747688
1123	H	0.756124	0.170642	0.765093
1124	C	0.918246	0.158332	0.669039
1125	C	0.909211	0.137769	0.707743
1126	C	0.878302	0.107365	0.709443
1127	C	0.857161	0.097574	0.67081
1128	N	0.868634	0.118384	0.968034
1129	H	0.922637	0.147194	0.736786
1130	N	0.896641	0.146393	0.967235
1131	C	0.866917	0.088808	0.752689
1132	H	0.88581	0.09948	0.77907
1133	H	0.860932	0.063156	0.747516
1134	H	0.844799	0.088933	0.76481
1135	C	0.527324	0.765216	0.347641
1136	C	0.546585	0.800844	0.346223
1137	C	0.581425	0.818887	0.339748
1138	C	0.598491	0.800857	0.337435
1139	C	0.581571	0.76578	0.007135
1140	C	0.546659	0.748928	0.01302
1141	H	0.535464	0.814911	0.347428
1142	O	0.632499	0.817945	0.338051
1143	C	0.99121	0.747112	0.347674
1144	C	0.971883	0.76341	0.013092
1145	C	0.936964	0.746575	0.007309
1146	C	0.92003	0.711493	0.337696
1147	C	0.937085	0.693448	0.33991
1148	C	0.97194	0.711481	0.346284
1149	O	0.886022	0.69441	0.338462
1150	H	0.983066	0.697417	0.347333
1151	H	0.638909	0.82131	0.036768
1152	H	0.879679	0.691085	0.037205
1153	H	0.535565	0.723749	0.014261
1154	H	0.982984	0.788587	0.014365
1155	C	0.750161	0.765124	0.347786
1156	C	0.714533	0.748762	0.346382
1157	C	0.696495	0.765577	0.340014
1158	C	0.714534	0.800678	0.337848
1159	C	0.749615	0.818823	0.00747
1160	C	0.766457	0.800748	0.013231
1161	H	0.700467	0.72357	0.347418
1162	O	0.697435	0.817585	0.338631
1163	C	0.768273	0.747124	0.347779
1164	C	0.751978	0.711503	0.013209
1165	C	0.768819	0.693431	0.007392
1166	C	0.803904	0.711575	0.337825
1167	C	0.821942	0.746674	0.340052
1168	C	0.803901	0.763487	0.346382
1169	O	0.820976	0.694641	0.338617
1170	H	0.817965	0.788676	0.347553
1171	H	0.694133	0.820617	0.03738
1172	H	0.824302	0.691639	0.037368
1173	H	0.791633	0.814822	0.014564
1174	H	0.726798	0.697427	0.014429
1175	C	0.750219	0.988124	0.347776
1176	C	0.766576	0.968852	0.346564
1177	C	0.749783	0.934004	0.340173
1178	C	0.714681	0.916933	0.337909
1179	C	0.69654	0.933877	0.007341
1180	C	0.714596	0.968802	0.013013
1181	H	0.791761	0.979969	0.347954
1182	O	0.697737	0.882927	0.338685
1183	C	0.768249	0.524236	0.347755
1184	C	0.80387	0.543556	0.012975
1185	C	0.821932	0.578478	0.007256
1186	C	0.803776	0.595403	0.33773
1187	C	0.768675	0.578342	0.340041
1188	C	0.751888	0.543506	0.346551
1189	O	0.820708	0.629413	0.338523
1190	H	0.726706	0.532389	0.347914
1191	H	0.694735	0.876593	0.037433
1192	H	0.82375	0.635742	0.037272
1193	H	0.700516	0.979907	0.013963
1194	H	0.81795	0.532451	0.014006
1195	C	0.661364	0.749264	0.002514
1196	C	0.640808	0.737764	0.041205
1197	C	0.61041	0.738285	0.0428
1198	C	0.600682	0.749654	0.004123
1199	N	0.621522	0.758959	0.301375
1200	H	0.650221	0.733783	0.070274
1201	N	0.649524	0.758945	0.300617
1202	C	0.591835	0.731151	0.08603
1203	H	0.602489	0.722946	0.112457
1204	H	0.566186	0.711484	0.080854
1205	H	0.591959	0.753406	0.098093
1206	C	0.766134	0.915213	0.00303
1207	C	0.77757	0.906069	0.041673
1208	C	0.777167	0.875217	0.043254
1209	C	0.76582	0.854061	0.004653
1210	N	0.756372	0.86557	0.301992
1211	H	0.781761	0.919587	0.070672
1212	N	0.756371	0.89358	0.301218
1213	C	0.784409	0.863814	0.08643
1214	H	0.792588	0.882664	0.112867
1215	H	0.80413	0.857917	0.081176
1216	H	0.762211	0.841639	0.098519
1217	C	0.600253	0.854011	0.002284
1218	C	0.609258	0.874523	0.041039
1219	C	0.64016	0.904933	0.042802
1220	C	0.661312	0.914791	0.004181
1221	N	0.649868	0.894027	0.301357
1222	H	0.595823	0.865056	0.070064
1223	N	0.621872	0.86601	0.300499
1224	C	0.651521	0.923441	0.086088
1225	H	0.632614	0.912733	0.112449
1226	H	0.657505	0.949097	0.080971
1227	H	0.673633	0.923304	0.098203
1228	C	0.857059	0.762963	0.002665
1229	C	0.877644	0.77444	0.041367
1230	C	0.908099	0.77405	0.043061
1231	C	0.917923	0.762786	0.00442
1232	N	0.8971	0.753356	0.301645
1233	H	0.868202	0.778496	0.070356
1234	N	0.869062	0.753304	0.3009
1235	C	0.926643	0.781204	0.08631
1236	H	0.915916	0.78934	0.112722
1237	H	0.952277	0.800924	0.081174
1238	H	0.926579	0.758974	0.098357
1239	C	0.752326	0.597135	0.002888
1240	C	0.740846	0.606247	0.041527
1241	C	0.741214	0.637081	0.043148
1242	C	0.752602	0.658178	0.004511
1243	N	0.762081	0.646777	0.30179
1244	H	0.736641	0.592712	0.070512
1245	N	0.762089	0.61877	0.301067
1246	C	0.733935	0.648467	0.086306
1247	H	0.725742	0.629607	0.112727
1248	H	0.714215	0.654361	0.081022
1249	H	0.756125	0.670642	0.098426
1250	C	0.918247	0.658332	0.002372
1251	C	0.90921	0.637767	0.041077
1252	C	0.878302	0.607365	0.042776
1253	C	0.857161	0.597574	0.004143
1254	N	0.868633	0.618383	0.301369
1255	H	0.922637	0.647195	0.070117
1256	N	0.89664	0.646392	0.300567
1257	C	0.866916	0.588808	0.086023
1258	H	0.88581	0.59948	0.112404
1259	H	0.860932	0.563157	0.08085
1260	H	0.844798	0.588932	0.098143
1261	C	0.527324	0.765216	0.680974
1262	C	0.546585	0.800844	0.679557
1263	C	0.581425	0.818887	0.673081
1264	C	0.598491	0.800857	0.67077
1265	C	0.581571	0.76578	0.34047
1266	C	0.546659	0.748928	0.346352
1267	H	0.535464	0.814911	0.680761
1268	O	0.632499	0.817945	0.671384
1269	C	0.99121	0.747112	0.681008
1270	C	0.971883	0.76341	0.346426
1271	C	0.936964	0.746575	0.340642
1272	C	0.92003	0.711493	0.67103
1273	C	0.937085	0.693448	0.673243
1274	C	0.97194	0.711481	0.679617
1275	O	0.886022	0.69441	0.671796
1276	H	0.983066	0.697417	0.680667
1277	H	0.638909	0.82131	0.3701
1278	H	0.879679	0.691085	0.370539
1279	H	0.535565	0.723749	0.347593
1280	H	0.982984	0.788587	0.347698
1281	C	0.750161	0.765124	0.681119
1282	C	0.714533	0.748762	0.679715
1283	C	0.696495	0.765577	0.673348
1284	C	0.714534	0.800678	0.671181
1285	C	0.749615	0.818823	0.340804
1286	C	0.766457	0.800748	0.346564
1287	H	0.700467	0.72357	0.680751
1288	O	0.697435	0.817585	0.671964
1289	C	0.768273	0.747124	0.681112
1290	C	0.751978	0.711503	0.346544
1291	C	0.768819	0.693431	0.340726
1292	C	0.803904	0.711575	0.671158
1293	C	0.821942	0.746674	0.673385
1294	C	0.803901	0.763487	0.679715
1295	O	0.820976	0.694641	0.671951
1296	H	0.817965	0.788676	0.680886
1297	H	0.694133	0.820617	0.370714
1298	H	0.824302	0.691639	0.370701
1299	H	0.791633	0.814822	0.347897
1300	H	0.726798	0.697427	0.347762
1301	C	0.750219	0.988124	0.681109
1302	C	0.766576	0.968852	0.679897
1303	C	0.749783	0.934004	0.673506
1304	C	0.714681	0.916933	0.671242
1305	C	0.69654	0.933877	0.340676
1306	C	0.714596	0.968802	0.346345
1307	H	0.791761	0.979969	0.681288
1308	O	0.697737	0.882927	0.672018
1309	C	0.768249	0.524236	0.681089
1310	C	0.80387	0.543556	0.346308
1311	C	0.821932	0.578478	0.340588
1312	C	0.803776	0.595403	0.671063
1313	C	0.768675	0.578342	0.673375
1314	C	0.751888	0.543506	0.679884
1315	O	0.820708	0.629413	0.671856
1316	H	0.726706	0.532389	0.681247
1317	H	0.694735	0.876593	0.370765
1318	H	0.82375	0.635742	0.370606
1319	H	0.700516	0.979907	0.347296
1320	H	0.81795	0.532451	0.34734
1321	C	0.661364	0.749264	0.335848
1322	C	0.640808	0.737764	0.374538
1323	C	0.61041	0.738285	0.376134
1324	C	0.600682	0.749654	0.337457
1325	N	0.621522	0.758959	0.634708
1326	H	0.650221	0.733783	0.403608
1327	N	0.649524	0.758945	0.633952
1328	C	0.591835	0.731151	0.419363
1329	H	0.602489	0.722946	0.445791
1330	H	0.566186	0.711484	0.414186
1331	H	0.591959	0.753406	0.431426
1332	C	0.766134	0.915213	0.336363
1333	C	0.77757	0.906069	0.375007
1334	C	0.777167	0.875217	0.376586
1335	C	0.76582	0.854061	0.337986
1336	N	0.756372	0.86557	0.635325
1337	H	0.781761	0.919587	0.404006
1338	N	0.756371	0.89358	0.634553
1339	C	0.784409	0.863814	0.419764
1340	H	0.792588	0.882664	0.446199
1341	H	0.80413	0.857917	0.41451
1342	H	0.762211	0.841639	0.431851
1343	C	0.600253	0.854011	0.335618
1344	C	0.609258	0.874523	0.374372
1345	C	0.64016	0.904933	0.376137
1346	C	0.661312	0.914791	0.337514
1347	N	0.649868	0.894027	0.634691
1348	H	0.595823	0.865056	0.403399
1349	N	0.621872	0.86601	0.633831
1350	C	0.651521	0.923441	0.419423
1351	H	0.632614	0.912733	0.445784
1352	H	0.657505	0.949097	0.414304
1353	H	0.673633	0.923304	0.431537
1354	C	0.857059	0.762963	0.336
1355	C	0.877644	0.77444	0.3747
1356	C	0.908099	0.77405	0.376394
1357	C	0.917923	0.762786	0.337754
1358	N	0.8971	0.753356	0.634978
1359	H	0.868202	0.778496	0.403689
1360	N	0.869062	0.753304	0.634232
1361	C	0.926643	0.781204	0.419643
1362	H	0.915916	0.78934	0.446057
1363	H	0.952277	0.800924	0.414507
1364	H	0.926579	0.758974	0.431689
1365	C	0.752326	0.597135	0.336221
1366	C	0.740846	0.606247	0.374862
1367	C	0.741214	0.637081	0.376481
1368	C	0.752602	0.658178	0.337845
1369	N	0.762081	0.646777	0.635123
1370	H	0.736641	0.592712	0.403847
1371	N	0.762089	0.61877	0.634401
1372	C	0.733935	0.648467	0.419639
1373	H	0.725742	0.629607	0.446061
1374	H	0.714215	0.654361	0.414355
1375	H	0.756125	0.670642	0.43176
1376	C	0.918247	0.658332	0.335704
1377	C	0.90921	0.637767	0.374409
1378	C	0.878302	0.607365	0.37611
1379	C	0.857161	0.597574	0.337477
1380	N	0.868633	0.618383	0.634701
1381	H	0.922637	0.647195	0.403449
1382	N	0.89664	0.646392	0.633901
1383	C	0.866916	0.588808	0.419356
1384	H	0.88581	0.59948	0.445737
1385	H	0.860932	0.563157	0.414183
1386	H	0.844798	0.588932	0.431477
1387	C	0.527324	0.765216	0.014306
1388	C	0.546585	0.800844	0.01289
1389	C	0.581425	0.818887	0.006415
1390	C	0.598491	0.800857	0.004103
1391	C	0.581571	0.76578	0.673803
1392	C	0.546659	0.748928	0.679688
1393	H	0.535464	0.814911	0.014094
1394	O	0.632499	0.817945	0.004717
1395	C	0.99121	0.747112	0.01434
1396	C	0.971883	0.76341	0.679759
1397	C	0.936964	0.746575	0.673975
1398	C	0.92003	0.711493	0.004363
1399	C	0.937085	0.693448	0.006576
1400	C	0.97194	0.711481	0.01295
1401	O	0.886022	0.69441	0.005129
1402	H	0.983066	0.697417	0.013999
1403	H	0.638909	0.82131	0.703434
1404	H	0.879679	0.691085	0.703872
1405	H	0.535565	0.723749	0.680927
1406	H	0.982984	0.788587	0.681031
1407	C	0.750161	0.765124	0.014451
1408	C	0.714533	0.748762	0.013049
1409	C	0.696495	0.765577	0.006681
1410	C	0.714534	0.800678	0.004515
1411	C	0.749615	0.818823	0.674137
1412	C	0.766457	0.800748	0.679897
1413	H	0.700467	0.72357	0.014085
1414	O	0.697435	0.817585	0.005297
1415	C	0.768273	0.747124	0.014445
1416	C	0.751978	0.711503	0.679877
1417	C	0.768819	0.693431	0.67406
1418	C	0.803904	0.711575	0.004491
1419	C	0.821942	0.746674	0.006719
1420	C	0.803901	0.763487	0.01305
1421	O	0.820976	0.694641	0.005284
1422	H	0.817965	0.788676	0.014219
1423	H	0.694133	0.820617	0.704048
1424	H	0.824302	0.691639	0.704034
1425	H	0.791633	0.814822	0.68123
1426	H	0.726798	0.697427	0.681095
1427	C	0.750219	0.988124	0.014442
1428	C	0.766576	0.968852	0.013232
1429	C	0.749783	0.934004	0.006839
1430	C	0.714681	0.916933	0.004575
1431	C	0.69654	0.933877	0.674009
1432	C	0.714596	0.968802	0.679681
1433	H	0.791761	0.979969	0.014622
1434	O	0.697737	0.882927	0.005351
1435	C	0.768249	0.524236	0.014422
1436	C	0.80387	0.543556	0.679641
1437	C	0.821932	0.578478	0.673921
1438	C	0.803776	0.595403	0.004397
1439	C	0.768675	0.578342	0.006707
1440	C	0.751888	0.543506	0.013216
1441	O	0.820708	0.629413	0.00519
1442	H	0.726706	0.532389	0.014581
1443	H	0.694735	0.876593	0.704098
1444	H	0.82375	0.635742	0.70394
1445	H	0.700516	0.979907	0.68063
1446	H	0.81795	0.532451	0.680673
1447	C	0.661364	0.749264	0.66918
1448	C	0.640808	0.737764	0.707871
1449	C	0.61041	0.738285	0.709467
1450	C	0.600682	0.749654	0.67079
1451	N	0.621522	0.758959	0.968041
1452	H	0.650221	0.733783	0.736941
1453	N	0.649524	0.758945	0.967285
1454	C	0.591835	0.731151	0.752696
1455	H	0.602489	0.722946	0.779124
1456	H	0.566186	0.711484	0.74752
1457	H	0.591959	0.753406	0.764759
1458	C	0.766134	0.915213	0.669697
1459	C	0.77757	0.906069	0.70834
1460	C	0.777167	0.875217	0.709919
1461	C	0.76582	0.854061	0.67132
1462	N	0.756372	0.86557	0.968659
1463	H	0.781761	0.919587	0.737339
1464	N	0.756371	0.89358	0.967886
1465	C	0.784409	0.863814	0.753097
1466	H	0.792588	0.882664	0.779532
1467	H	0.80413	0.857917	0.747844
1468	H	0.762211	0.841639	0.765184
1469	C	0.600253	0.854011	0.668951
1470	C	0.609258	0.874523	0.707706
1471	C	0.64016	0.904933	0.70947
1472	C	0.661312	0.914791	0.670847
1473	N	0.649868	0.894027	0.968024
1474	H	0.595823	0.865056	0.736732
1475	N	0.621872	0.86601	0.967164
1476	C	0.651521	0.923441	0.752757
1477	H	0.632614	0.912733	0.779117
1478	H	0.657505	0.949097	0.747638
1479	H	0.673633	0.923304	0.764871
1480	C	0.857059	0.762963	0.669332
1481	C	0.877644	0.77444	0.708033
1482	C	0.908099	0.77405	0.709727
1483	C	0.917923	0.762786	0.671087
1484	N	0.8971	0.753356	0.968311
1485	H	0.868202	0.778496	0.737022
1486	N	0.869062	0.753304	0.967565
1487	C	0.926643	0.781204	0.752976
1488	H	0.915916	0.78934	0.779391
1489	H	0.952277	0.800924	0.74784
1490	H	0.926579	0.758974	0.765022
1491	C	0.752326	0.597135	0.669555
1492	C	0.740846	0.606247	0.708195
1493	C	0.741214	0.637081	0.709814
1494	C	0.752602	0.658178	0.671178
1495	N	0.762081	0.646777	0.968456
1496	H	0.736641	0.592712	0.737181
1497	N	0.762089	0.61877	0.967734
1498	C	0.733935	0.648467	0.752973
1499	H	0.725742	0.629607	0.779394
1500	H	0.714215	0.654361	0.747688
1501	H	0.756125	0.670642	0.765093
1502	C	0.918247	0.658332	0.669039
1503	C	0.90921	0.637767	0.707743
1504	C	0.878302	0.607365	0.709443
1505	C	0.857161	0.597574	0.67081
1506	N	0.868633	0.618383	0.968034
1507	H	0.922637	0.647195	0.736786
1508	N	0.89664	0.646392	0.967235
1509	C	0.866916	0.588808	0.752689
1510	H	0.88581	0.59948	0.77907
1511	H	0.860932	0.563157	0.747516
1512	H	0.844798	0.588932	0.76481
