data_C648H432N144O72_2018-02-15_10:40:01
#******************************************
#
# CIF file created by Zeo++
# Zeo++ is an open source package to
# analyze microporous materials
#
#*******************************************

_cell_length_a		45.2482   
_cell_length_b		45.2692   
_cell_length_c		29.6818   
_cell_angle_alpha		90   
_cell_angle_beta		90   
_cell_angle_gamma		119.989   

_symmetry_space_group_name_H-M		'P1'
_symmetry_Int_Tables_number		1
_symmetry_cell_setting		Monoclinic

loop_
_symmetry_equiv_pos_as_xyz
'+x,+y,+z'

loop_
_atom_site_label
_atom_site_type_symbol
_atom_site_fract_x
_atom_site_fract_y
_atom_site_fract_z
1	C	0.041877	0.022333	0.003338
2	C	0.023066	0.039672	0.003183
3	C	0.023424	0.486184	0.003206
4	H	0.036627	0.473256	0.002819
5	H	0.036	0.065794	0.002788
6	C	0.098787	0.069455	0.029524
7	C	0.078381	0.040484	0.336124
8	N	0.095461	0.030332	0.308222
9	H	0.088175	0.078832	0.051595
10	C	0.041877	0.022333	0.336671
11	C	0.023066	0.039672	0.336516
12	C	0.023424	0.486184	0.33654
13	H	0.036627	0.473256	0.33615
14	H	0.036	0.065794	0.33612
15	C	0.098787	0.069455	0.362858
16	C	0.078381	0.040484	0.669457
17	N	0.095461	0.030332	0.641557
18	H	0.088175	0.078832	0.384929
19	C	0.041877	0.022333	0.670006
20	C	0.023066	0.039672	0.669851
21	C	0.023424	0.486184	0.669874
22	H	0.036627	0.473256	0.669484
23	H	0.036	0.065794	0.669453
24	C	0.098787	0.069455	0.69619
25	C	0.078381	0.040484	0.002792
26	N	0.095461	0.030332	0.974889
27	H	0.088175	0.078832	0.718264
28	C	0.041879	0.522335	0.003338
29	C	0.023067	0.539673	0.003183
30	C	0.023424	0.986185	0.003206
31	H	0.036626	0.973256	0.002819
32	H	0.036001	0.565794	0.002788
33	C	0.098788	0.569457	0.029524
34	C	0.078381	0.540484	0.336124
35	N	0.095461	0.530333	0.308222
36	H	0.088176	0.578832	0.051595
37	C	0.041879	0.522335	0.336671
38	C	0.023067	0.539673	0.336516
39	C	0.023424	0.986185	0.33654
40	H	0.036626	0.973256	0.33615
41	H	0.036001	0.565794	0.33612
42	C	0.098788	0.569457	0.362858
43	C	0.078381	0.540484	0.669457
44	N	0.095461	0.530333	0.641557
45	H	0.088176	0.578832	0.384929
46	C	0.041879	0.522335	0.670006
47	C	0.023067	0.539673	0.669851
48	C	0.023424	0.986185	0.669874
49	H	0.036626	0.973256	0.669484
50	H	0.036001	0.565794	0.669453
51	C	0.098788	0.569457	0.69619
52	C	0.078381	0.540484	0.002792
53	N	0.095461	0.530333	0.974889
54	H	0.088176	0.578832	0.718264
55	C	0.187074	0.092617	0.001276
56	C	0.150472	0.073816	0.333224
57	N	0.133318	0.084409	0.02718
58	C	0.130075	0.045316	0.304886
59	C	0.143378	0.032038	0.269174
60	O	0.166808	0.058308	0.23952
61	H	0.122507	0.012359	0.249113
62	H	0.156376	0.01987	0.28466
63	H	0.154254	0.067355	0.222771
64	C	0.187074	0.092617	0.334609
65	C	0.150472	0.073816	0.666556
66	N	0.133318	0.084409	0.360513
67	C	0.130075	0.045316	0.638219
68	C	0.143378	0.032038	0.602507
69	O	0.166808	0.058308	0.572855
70	H	0.122507	0.012359	0.582447
71	H	0.156376	0.01987	0.617994
72	H	0.154254	0.067355	0.556104
73	C	0.187074	0.092617	0.667944
74	C	0.150472	0.073816	0.999891
75	N	0.133318	0.084409	0.693849
76	C	0.130075	0.045316	0.971554
77	C	0.143378	0.032038	0.935842
78	O	0.166808	0.058308	0.906187
79	H	0.122507	0.012359	0.915782
80	H	0.156376	0.01987	0.951326
81	H	0.154254	0.067355	0.88944
82	C	0.187075	0.592618	0.001276
83	C	0.150472	0.573816	0.333224
84	N	0.133318	0.584408	0.02718
85	C	0.130076	0.545317	0.304886
86	C	0.143378	0.532039	0.269174
87	O	0.166809	0.558309	0.23952
88	H	0.122508	0.51236	0.249113
89	H	0.156377	0.519871	0.28466
90	H	0.154254	0.567355	0.222771
91	C	0.187075	0.592618	0.334609
92	C	0.150472	0.573816	0.666556
93	N	0.133318	0.584408	0.360513
94	C	0.130076	0.545317	0.638219
95	C	0.143378	0.532039	0.602507
96	O	0.166809	0.558309	0.572855
97	H	0.122508	0.51236	0.582447
98	H	0.156377	0.519871	0.617994
99	H	0.154254	0.567355	0.556104
100	C	0.187075	0.592618	0.667944
101	C	0.150472	0.573816	0.999891
102	N	0.133318	0.584408	0.693849
103	C	0.130076	0.545317	0.971554
104	C	0.143378	0.532039	0.935842
105	O	0.166809	0.558309	0.906187
106	H	0.122508	0.51236	0.915782
107	H	0.156377	0.519871	0.951326
108	H	0.154254	0.567355	0.88944
109	C	0.242487	0.09434	0.006097
110	C	0.241017	0.147947	0.003327
111	C	0.204982	0.128923	0.00141
112	C	0.206464	0.075837	0.00455
113	H	0.191738	0.141769	0.999645
114	H	0.194408	0.049904	0.007493
115	O	0.237901	0.078497	0.102287
116	H	0.240692	0.101288	0.097796
117	C	0.242487	0.09434	0.33943
118	C	0.241017	0.147947	0.33666
119	C	0.204982	0.128923	0.334742
120	C	0.206464	0.075837	0.337883
121	H	0.191738	0.141769	0.332976
122	H	0.194408	0.049904	0.340828
123	O	0.237901	0.078497	0.43562
124	H	0.240692	0.101288	0.431129
125	C	0.242487	0.09434	0.672765
126	C	0.241017	0.147947	0.669992
127	C	0.204982	0.128923	0.668075
128	C	0.206464	0.075837	0.671219
129	H	0.191738	0.141769	0.66631
130	H	0.194408	0.049904	0.67416
131	O	0.237901	0.078497	0.768955
132	H	0.240692	0.101288	0.764464
133	C	0.242487	0.594339	0.006097
134	C	0.241017	0.647947	0.003327
135	C	0.204983	0.628924	0.00141
136	C	0.206465	0.575838	0.00455
137	H	0.191739	0.64177	0.999645
138	H	0.194409	0.549905	0.007493
139	O	0.237902	0.578498	0.102287
140	H	0.240692	0.601289	0.097796
141	C	0.242487	0.594339	0.33943
142	C	0.241017	0.647947	0.33666
143	C	0.204983	0.628924	0.334742
144	C	0.206465	0.575838	0.337883
145	H	0.191739	0.64177	0.332976
146	H	0.194409	0.549905	0.340828
147	O	0.237902	0.578498	0.43562
148	H	0.240692	0.601289	0.431129
149	C	0.242487	0.594339	0.672765
150	C	0.241017	0.647947	0.669992
151	C	0.204983	0.628924	0.668075
152	C	0.206465	0.575838	0.671219
153	H	0.191739	0.64177	0.66631
154	H	0.194409	0.549905	0.67416
155	O	0.237902	0.578498	0.768955
156	H	0.240692	0.601289	0.764464
157	C	0.486902	0.02198	0.003287
158	C	0.469558	0.48584	0.003162
159	C	0.487267	0.467385	0.003314
160	H	0.443425	0.472652	0.002748
161	C	0.259271	0.13025	0.005116
162	H	0.285467	0.143864	0.006364
163	C	0.415298	0.150895	0.006186
164	C	0.379365	0.131832	0.005275
165	C	0.361597	0.095894	0.003422
166	C	0.38056	0.078827	0.001427
167	C	0.41688	0.097149	0.001303
168	C	0.433735	0.133306	0.004614
169	H	0.367655	0.052748	0.999625
170	H	0.459681	0.147126	0.007578
171	H	0.365794	0.144451	0.006623
172	C	0.358535	0.266885	0.006076
173	C	0.377642	0.250064	0.005184
174	C	0.413596	0.268265	0.003422
175	C	0.430635	0.304288	0.001535
176	C	0.412261	0.322236	0.001293
177	C	0.376083	0.302893	0.004486
178	H	0.45673	0.317492	0.999884
179	H	0.36221	0.314969	0.007338
180	H	0.365044	0.223881	0.006512
181	C	0.435605	0.07927	0.333221
182	N	0.424902	0.051471	0.02709
183	C	0.43978	0.031828	0.029411
184	C	0.468772	0.040354	0.336049
185	N	0.479039	0.067646	0.308245
186	C	0.464154	0.087365	0.304961
187	H	0.430309	0.011791	0.051396
188	C	0.477524	0.113961	0.269282
189	O	0.451297	0.111215	0.239599
190	H	0.497198	0.112732	0.24924
191	H	0.489741	0.139107	0.284802
192	H	0.442211	0.08963	0.222822
193	C	0.430094	0.35883	0.333229
194	N	0.457847	0.375958	0.027183
195	C	0.477453	0.410471	0.029509
196	C	0.468916	0.430895	0.336087
197	N	0.441682	0.413841	0.308181
198	C	0.42203	0.379243	0.304856
199	H	0.497435	0.421058	0.051589
200	C	0.395463	0.365981	0.269123
201	O	0.398271	0.342512	0.239511
202	H	0.396699	0.386857	0.249029
203	H	0.370287	0.353048	0.28459
204	H	0.419884	0.355012	0.222777
205	C	0.26321	0.079077	0.008185
206	N	0.278393	0.079359	0.301766
207	C	0.307456	0.077788	0.297908
208	C	0.325472	0.079291	0.004032
209	N	0.310943	0.080289	0.043688
210	C	0.280269	0.078815	0.048355
211	H	0.318452	0.081101	0.266848
212	C	0.270308	0.080738	0.09553
213	H	0.290456	0.103929	0.11144
214	H	0.268913	0.059072	0.113608
215	C	0.430693	0.18689	0.008461
216	N	0.430004	0.201581	0.302037
217	C	0.431535	0.232189	0.298159
218	C	0.430215	0.248761	0.004365
219	N	0.429541	0.233399	0.044003
220	C	0.431078	0.204243	0.048615
221	H	0.4278	0.23957	0.267121
222	C	0.429573	0.192495	0.095767
223	O	0.43172	0.162273	0.102337
224	H	0.40656	0.189578	0.1121
225	H	0.45146	0.212764	0.113519
226	H	0.408861	0.142335	0.097989
227	C	0.322529	0.246197	0.00806
228	N	0.307639	0.231098	0.301625
229	C	0.276983	0.202074	0.297808
230	C	0.260479	0.18406	0.003941
231	N	0.276031	0.198568	0.043595
232	C	0.305247	0.229208	0.048274
233	H	0.269272	0.191085	0.266751
234	C	0.317141	0.239145	0.095449
235	O	0.347289	0.27154	0.102218
236	H	0.320208	0.219002	0.11133
237	H	0.296862	0.240528	0.113549
238	H	0.367306	0.268755	0.097759
239	C	0.486902	0.02198	0.33662
240	C	0.469558	0.48584	0.336494
241	C	0.487267	0.467385	0.336647
242	H	0.443425	0.472652	0.336082
243	C	0.259271	0.13025	0.338449
244	H	0.285467	0.143864	0.339699
245	C	0.415298	0.150895	0.339521
246	C	0.379365	0.131832	0.338608
247	C	0.361597	0.095894	0.336755
248	C	0.38056	0.078827	0.33476
249	C	0.41688	0.097149	0.334635
250	C	0.433735	0.133306	0.337947
251	H	0.367655	0.052748	0.332956
252	H	0.459681	0.147126	0.340912
253	H	0.365794	0.144451	0.339959
254	C	0.358535	0.266885	0.33941
255	C	0.377642	0.250064	0.338513
256	C	0.413596	0.268265	0.336756
257	C	0.430635	0.304288	0.334869
258	C	0.412261	0.322236	0.334625
259	C	0.376083	0.302893	0.337819
260	H	0.45673	0.317492	0.333215
261	H	0.36221	0.314969	0.340673
262	H	0.365044	0.223881	0.339848
263	C	0.435605	0.07927	0.666556
264	N	0.424902	0.051471	0.360422
265	C	0.43978	0.031828	0.362744
266	C	0.468772	0.040354	0.669382
267	N	0.479039	0.067646	0.641578
268	C	0.464154	0.087365	0.638293
269	H	0.430309	0.011791	0.38473
270	C	0.477524	0.113961	0.602618
271	O	0.451297	0.111215	0.572933
272	H	0.497198	0.112732	0.582575
273	H	0.489741	0.139107	0.618136
274	H	0.442211	0.08963	0.556155
275	C	0.430094	0.35883	0.666563
276	N	0.457847	0.375958	0.360517
277	C	0.477453	0.410471	0.362841
278	C	0.468916	0.430895	0.66942
279	N	0.441682	0.413841	0.641514
280	C	0.42203	0.379243	0.638192
281	H	0.497435	0.421058	0.384922
282	C	0.395463	0.365981	0.602456
283	O	0.398271	0.342512	0.572845
284	H	0.396699	0.386857	0.582363
285	H	0.370287	0.353048	0.617923
286	H	0.419884	0.355012	0.556111
287	C	0.26321	0.079077	0.341519
288	N	0.278393	0.079359	0.635099
289	C	0.307456	0.077788	0.631241
290	C	0.325472	0.079291	0.337365
291	N	0.310943	0.080289	0.377022
292	C	0.280269	0.078815	0.381688
293	H	0.318452	0.081101	0.600182
294	C	0.270308	0.080738	0.428865
295	H	0.290456	0.103929	0.444774
296	H	0.268913	0.059072	0.44694
297	C	0.430693	0.18689	0.341795
298	N	0.430004	0.201581	0.635372
299	C	0.431535	0.232189	0.631494
300	C	0.430215	0.248761	0.337698
301	N	0.429541	0.233399	0.377339
302	C	0.431078	0.204243	0.381947
303	H	0.4278	0.23957	0.600455
304	C	0.429573	0.192495	0.429101
305	O	0.43172	0.162273	0.43567
306	H	0.40656	0.189578	0.445434
307	H	0.45146	0.212764	0.446852
308	H	0.408861	0.142335	0.431324
309	C	0.322529	0.246197	0.341394
310	N	0.307639	0.231098	0.634957
311	C	0.276983	0.202074	0.63114
312	C	0.260479	0.18406	0.337274
313	N	0.276031	0.198568	0.376927
314	C	0.305247	0.229208	0.381607
315	H	0.269272	0.191085	0.600084
316	C	0.317141	0.239145	0.428784
317	O	0.347289	0.27154	0.435553
318	H	0.320208	0.219002	0.444663
319	H	0.296862	0.240528	0.446883
320	H	0.367306	0.268755	0.431092
321	C	0.486902	0.02198	0.669955
322	C	0.469558	0.48584	0.669827
323	C	0.487267	0.467385	0.669982
324	H	0.443425	0.472652	0.669416
325	C	0.259271	0.13025	0.671785
326	H	0.285467	0.143864	0.673031
327	C	0.415298	0.150895	0.672853
328	C	0.379365	0.131832	0.67194
329	C	0.361597	0.095894	0.67009
330	C	0.38056	0.078827	0.668092
331	C	0.41688	0.097149	0.667967
332	C	0.433735	0.133306	0.671279
333	H	0.367655	0.052748	0.66629
334	H	0.459681	0.147126	0.674244
335	H	0.365794	0.144451	0.673291
336	C	0.358535	0.266885	0.672745
337	C	0.377642	0.250064	0.671849
338	C	0.413596	0.268265	0.67009
339	C	0.430635	0.304288	0.668203
340	C	0.412261	0.322236	0.667957
341	C	0.376083	0.302893	0.671151
342	H	0.45673	0.317492	0.666549
343	H	0.36221	0.314969	0.674005
344	H	0.365044	0.223881	0.673179
345	C	0.435605	0.07927	0.999888
346	N	0.424902	0.051471	0.693758
347	C	0.43978	0.031828	0.696079
348	C	0.468772	0.040354	0.002718
349	N	0.479039	0.067646	0.974913
350	C	0.464154	0.087365	0.971628
351	H	0.430309	0.011791	0.718065
352	C	0.477524	0.113961	0.93595
353	O	0.451297	0.111215	0.906268
354	H	0.497198	0.112732	0.915907
355	H	0.489741	0.139107	0.951471
356	H	0.442211	0.08963	0.88949
357	C	0.430094	0.35883	0.999898
358	N	0.457847	0.375958	0.693852
359	C	0.477453	0.410471	0.696177
360	C	0.468916	0.430895	0.002755
361	N	0.441682	0.413841	0.974849
362	C	0.42203	0.379243	0.971523
363	H	0.497435	0.421058	0.718257
364	C	0.395463	0.365981	0.935791
365	O	0.398271	0.342512	0.90618
366	H	0.396699	0.386857	0.915698
367	H	0.370287	0.353048	0.951259
368	H	0.419884	0.355012	0.889443
369	C	0.26321	0.079077	0.674854
370	N	0.278393	0.079359	0.968434
371	C	0.307456	0.077788	0.964576
372	C	0.325472	0.079291	0.6707
373	N	0.310943	0.080289	0.710357
374	C	0.280269	0.078815	0.715023
375	H	0.318452	0.081101	0.933517
376	C	0.270308	0.080738	0.762197
377	H	0.290456	0.103929	0.778109
378	H	0.268913	0.059072	0.780275
379	C	0.430693	0.18689	0.675127
380	N	0.430004	0.201581	0.968704
381	C	0.431535	0.232189	0.964826
382	C	0.430215	0.248761	0.671033
383	N	0.429541	0.233399	0.71067
384	C	0.431078	0.204243	0.715283
385	H	0.4278	0.23957	0.933787
386	C	0.429573	0.192495	0.762436
387	O	0.43172	0.162273	0.769006
388	H	0.40656	0.189578	0.778766
389	H	0.45146	0.212764	0.780188
390	H	0.408861	0.142335	0.764656
391	C	0.322529	0.246197	0.674729
392	N	0.307639	0.231098	0.968293
393	C	0.276983	0.202074	0.964475
394	C	0.260479	0.18406	0.670605
395	N	0.276031	0.198568	0.710263
396	C	0.305247	0.229208	0.714942
397	H	0.269272	0.191085	0.933419
398	C	0.317141	0.239145	0.762116
399	O	0.347289	0.27154	0.768884
400	H	0.320208	0.219002	0.777998
401	H	0.296862	0.240528	0.780218
402	H	0.367306	0.268755	0.764427
403	C	0.486901	0.52198	0.003287
404	C	0.469559	0.985843	0.003162
405	C	0.487268	0.967385	0.003314
406	H	0.443425	0.972652	0.002748
407	C	0.259271	0.63025	0.005116
408	H	0.285468	0.643864	0.006364
409	C	0.4153	0.650896	0.006186
410	C	0.379367	0.631834	0.005275
411	C	0.361598	0.595895	0.003422
412	C	0.380561	0.578827	0.001427
413	C	0.416882	0.59715	0.001303
414	C	0.433737	0.633308	0.004614
415	H	0.367656	0.552749	0.999625
416	H	0.459682	0.647126	0.007578
417	H	0.365794	0.644451	0.006623
418	C	0.358536	0.766886	0.006076
419	C	0.377643	0.750065	0.005184
420	C	0.413596	0.768265	0.003422
421	C	0.430635	0.804288	0.001535
422	C	0.412262	0.822236	0.001293
423	C	0.376084	0.802893	0.004486
424	H	0.456732	0.817492	0.999884
425	H	0.36221	0.81497	0.007338
426	H	0.365045	0.723882	0.006512
427	C	0.435607	0.579271	0.333221
428	N	0.424903	0.551471	0.02709
429	C	0.439781	0.531827	0.029411
430	C	0.468774	0.540356	0.336049
431	N	0.479039	0.567646	0.308245
432	C	0.464155	0.587366	0.304961
433	H	0.43031	0.511791	0.051396
434	C	0.477525	0.613963	0.269283
435	O	0.451298	0.611216	0.239599
436	H	0.497199	0.612733	0.24924
437	H	0.489741	0.639108	0.284802
438	H	0.442211	0.589631	0.222822
439	C	0.430093	0.85883	0.333229
440	N	0.457846	0.875959	0.027183
441	C	0.477452	0.910472	0.029509
442	C	0.468916	0.930896	0.336087
443	N	0.441683	0.913841	0.308181
444	C	0.42203	0.879246	0.304856
445	H	0.497435	0.921059	0.051589
446	C	0.395464	0.865984	0.269123
447	O	0.398271	0.842512	0.239511
448	H	0.3967	0.886857	0.249029
449	H	0.370287	0.853048	0.28459
450	H	0.419885	0.855012	0.222777
451	C	0.26321	0.579077	0.008185
452	N	0.278393	0.57936	0.301766
453	C	0.307456	0.577789	0.297908
454	C	0.325473	0.579292	0.004032
455	N	0.310944	0.580289	0.043688
456	C	0.280269	0.578815	0.048355
457	H	0.318453	0.581102	0.266848
458	C	0.270309	0.580738	0.09553
459	H	0.290456	0.603929	0.11144
460	H	0.268914	0.559074	0.113608
461	C	0.430692	0.68689	0.008461
462	N	0.430005	0.701581	0.302037
463	C	0.431535	0.732189	0.298159
464	C	0.430215	0.748762	0.004365
465	N	0.429541	0.733401	0.044003
466	C	0.431079	0.704244	0.048615
467	H	0.4278	0.73957	0.267121
468	C	0.429575	0.692496	0.095767
469	O	0.431722	0.662273	0.102337
470	H	0.406559	0.689579	0.1121
471	H	0.451459	0.712765	0.113519
472	H	0.408861	0.642336	0.097989
473	C	0.32253	0.746199	0.00806
474	N	0.307639	0.731098	0.301625
475	C	0.276983	0.702073	0.297808
476	C	0.26048	0.684062	0.003941
477	N	0.276032	0.698569	0.043595
478	C	0.305247	0.729208	0.048274
479	H	0.269273	0.691086	0.266751
480	C	0.317142	0.739147	0.095449
481	O	0.347291	0.771543	0.102218
482	H	0.320209	0.719003	0.11133
483	H	0.296863	0.740529	0.113549
484	H	0.367307	0.768755	0.097759
485	C	0.486901	0.52198	0.33662
486	C	0.469559	0.985843	0.336494
487	C	0.487268	0.967385	0.336647
488	H	0.443425	0.972652	0.336082
489	C	0.259271	0.63025	0.338449
490	H	0.285468	0.643864	0.339699
491	C	0.4153	0.650896	0.339521
492	C	0.379367	0.631834	0.338608
493	C	0.361598	0.595895	0.336755
494	C	0.380561	0.578827	0.33476
495	C	0.416882	0.59715	0.334635
496	C	0.433737	0.633308	0.337947
497	H	0.367656	0.552749	0.332956
498	H	0.459682	0.647126	0.340912
499	H	0.365794	0.644451	0.339959
500	C	0.358536	0.766886	0.33941
501	C	0.377643	0.750065	0.338513
502	C	0.413596	0.768265	0.336756
503	C	0.430635	0.804288	0.334869
504	C	0.412262	0.822236	0.334625
505	C	0.376084	0.802893	0.337819
506	H	0.456732	0.817492	0.333215
507	H	0.36221	0.81497	0.340673
508	H	0.365045	0.723882	0.339848
509	C	0.435607	0.579271	0.666556
510	N	0.424903	0.551471	0.360422
511	C	0.439781	0.531827	0.362744
512	C	0.468774	0.540356	0.669382
513	N	0.479039	0.567646	0.641578
514	C	0.464155	0.587366	0.638293
515	H	0.43031	0.511791	0.38473
516	C	0.477525	0.613963	0.602618
517	O	0.451298	0.611216	0.572933
518	H	0.497199	0.612733	0.582575
519	H	0.489741	0.639108	0.618136
520	H	0.442211	0.589631	0.556155
521	C	0.430093	0.85883	0.666563
522	N	0.457846	0.875959	0.360517
523	C	0.477452	0.910472	0.362841
524	C	0.468916	0.930896	0.66942
525	N	0.441683	0.913841	0.641514
526	C	0.42203	0.879246	0.638192
527	H	0.497435	0.921059	0.384922
528	C	0.395464	0.865984	0.602456
529	O	0.398271	0.842512	0.572845
530	H	0.3967	0.886857	0.582363
531	H	0.370287	0.853048	0.617923
532	H	0.419885	0.855012	0.556111
533	C	0.26321	0.579077	0.341519
534	N	0.278393	0.57936	0.635099
535	C	0.307456	0.577789	0.631241
536	C	0.325473	0.579292	0.337365
537	N	0.310944	0.580289	0.377022
538	C	0.280269	0.578815	0.381688
539	H	0.318453	0.581102	0.600182
540	C	0.270309	0.580738	0.428865
541	H	0.290456	0.603929	0.444774
542	H	0.268914	0.559074	0.44694
543	C	0.430692	0.68689	0.341795
544	N	0.430005	0.701581	0.635372
545	C	0.431535	0.732189	0.631494
546	C	0.430215	0.748762	0.337698
547	N	0.429541	0.733401	0.377339
548	C	0.431079	0.704244	0.381947
549	H	0.4278	0.73957	0.600455
550	C	0.429575	0.692496	0.429101
551	O	0.431722	0.662273	0.43567
552	H	0.406559	0.689579	0.445434
553	H	0.451459	0.712765	0.446852
554	H	0.408861	0.642336	0.431324
555	C	0.32253	0.746199	0.341394
556	N	0.307639	0.731098	0.634957
557	C	0.276983	0.702073	0.63114
558	C	0.26048	0.684062	0.337274
559	N	0.276032	0.698569	0.376927
560	C	0.305247	0.729208	0.381607
561	H	0.269273	0.691086	0.600084
562	C	0.317142	0.739147	0.428784
563	O	0.347291	0.771543	0.435553
564	H	0.320209	0.719003	0.444663
565	H	0.296863	0.740529	0.446883
566	H	0.367307	0.768755	0.431092
567	C	0.486901	0.52198	0.669955
568	C	0.469559	0.985843	0.669827
569	C	0.487268	0.967385	0.669982
570	H	0.443425	0.972652	0.669416
571	C	0.259271	0.63025	0.671785
572	H	0.285468	0.643864	0.673031
573	C	0.4153	0.650896	0.672853
574	C	0.379367	0.631834	0.67194
575	C	0.361598	0.595895	0.67009
576	C	0.380561	0.578827	0.668092
577	C	0.416882	0.59715	0.667967
578	C	0.433737	0.633308	0.671279
579	H	0.367656	0.552749	0.66629
580	H	0.459682	0.647126	0.674244
581	H	0.365794	0.644451	0.673291
582	C	0.358536	0.766886	0.672745
583	C	0.377643	0.750065	0.671849
584	C	0.413596	0.768265	0.67009
585	C	0.430635	0.804288	0.668203
586	C	0.412262	0.822236	0.667957
587	C	0.376084	0.802893	0.671151
588	H	0.456732	0.817492	0.666549
589	H	0.36221	0.81497	0.674005
590	H	0.365045	0.723882	0.673179
591	C	0.435607	0.579271	0.999888
592	N	0.424903	0.551471	0.693758
593	C	0.439781	0.531827	0.696079
594	C	0.468774	0.540356	0.002718
595	N	0.479039	0.567646	0.974913
596	C	0.464155	0.587366	0.971628
597	H	0.43031	0.511791	0.718065
598	C	0.477525	0.613963	0.93595
599	O	0.451298	0.611216	0.906268
600	H	0.497199	0.612733	0.915907
601	H	0.489741	0.639108	0.951471
602	H	0.442211	0.589631	0.88949
603	C	0.430093	0.85883	0.999898
604	N	0.457846	0.875959	0.693852
605	C	0.477452	0.910472	0.696177
606	C	0.468916	0.930896	0.002755
607	N	0.441683	0.913841	0.974849
608	C	0.42203	0.879246	0.971523
609	H	0.497435	0.921059	0.718257
610	C	0.395464	0.865984	0.935791
611	O	0.398271	0.842512	0.90618
612	H	0.3967	0.886857	0.915698
613	H	0.370287	0.853048	0.951259
614	H	0.419885	0.855012	0.889443
615	C	0.26321	0.579077	0.674854
616	N	0.278393	0.57936	0.968434
617	C	0.307456	0.577789	0.964576
618	C	0.325473	0.579292	0.6707
619	N	0.310944	0.580289	0.710357
620	C	0.280269	0.578815	0.715023
621	H	0.318453	0.581102	0.933517
622	C	0.270309	0.580738	0.762197
623	H	0.290456	0.603929	0.778109
624	H	0.268914	0.559074	0.780275
625	C	0.430692	0.68689	0.675127
626	N	0.430005	0.701581	0.968704
627	C	0.431535	0.732189	0.964826
628	C	0.430215	0.748762	0.671033
629	N	0.429541	0.733401	0.71067
630	C	0.431079	0.704244	0.715283
631	H	0.4278	0.73957	0.933787
632	C	0.429575	0.692496	0.762436
633	O	0.431722	0.662273	0.769006
634	H	0.406559	0.689579	0.778766
635	H	0.451459	0.712765	0.780188
636	H	0.408861	0.642336	0.764656
637	C	0.32253	0.746199	0.674729
638	N	0.307639	0.731098	0.968293
639	C	0.276983	0.702073	0.964475
640	C	0.26048	0.684062	0.670605
641	N	0.276032	0.698569	0.710263
642	C	0.305247	0.729208	0.714942
643	H	0.269273	0.691086	0.933419
644	C	0.317142	0.739147	0.762116
645	O	0.347291	0.771543	0.768884
646	H	0.320209	0.719003	0.777998
647	H	0.296863	0.740529	0.780218
648	H	0.367307	0.768755	0.764427
649	C	0.541879	0.022333	0.003338
650	C	0.523065	0.039672	0.003183
651	C	0.986902	0.02198	0.003287
652	C	0.969558	0.48584	0.003162
653	C	0.987267	0.467385	0.003314
654	C	0.523423	0.486184	0.003206
655	H	0.943426	0.472652	0.002748
656	H	0.536627	0.473256	0.002819
657	H	0.536	0.065794	0.002788
658	C	0.742488	0.09434	0.006097
659	C	0.759272	0.13025	0.005116
660	C	0.741018	0.147947	0.003327
661	C	0.704984	0.128923	0.00141
662	C	0.687074	0.092617	0.001276
663	C	0.706465	0.075837	0.00455
664	H	0.691739	0.141769	0.999645
665	H	0.694409	0.049904	0.007493
666	H	0.785468	0.143864	0.006364
667	C	0.915301	0.150895	0.006186
668	C	0.879367	0.131832	0.005275
669	C	0.861597	0.095894	0.003422
670	C	0.880562	0.078827	0.001427
671	C	0.91688	0.097149	0.001303
672	C	0.933735	0.133306	0.004614
673	H	0.867655	0.052748	0.999625
674	H	0.959683	0.147126	0.007578
675	H	0.865794	0.144451	0.006623
676	C	0.858537	0.266885	0.006076
677	C	0.877642	0.250064	0.005184
678	C	0.913596	0.268265	0.003422
679	C	0.930635	0.304288	0.001535
680	C	0.912263	0.322236	0.001293
681	C	0.876083	0.302893	0.004486
682	H	0.956732	0.317492	0.999884
683	H	0.86221	0.314969	0.007338
684	H	0.865044	0.223881	0.006512
685	C	0.650473	0.073816	0.333224
686	N	0.633318	0.084409	0.02718
687	C	0.598788	0.069455	0.029524
688	C	0.578382	0.040484	0.336124
689	N	0.595461	0.030332	0.308222
690	C	0.630075	0.045316	0.304886
691	H	0.588177	0.078832	0.051595
692	C	0.643379	0.032038	0.269174
693	O	0.66681	0.058308	0.23952
694	H	0.622508	0.012359	0.249113
695	H	0.656377	0.01987	0.28466
696	H	0.654255	0.067355	0.222771
697	C	0.935605	0.07927	0.333221
698	N	0.924902	0.051471	0.02709
699	C	0.93978	0.031828	0.029411
700	C	0.968772	0.040354	0.336049
701	N	0.979039	0.067646	0.308245
702	C	0.964154	0.087365	0.304961
703	H	0.930311	0.011791	0.051396
704	C	0.977524	0.113961	0.269282
705	O	0.951297	0.111215	0.239599
706	H	0.9972	0.112732	0.24924
707	H	0.989741	0.139107	0.284802
708	H	0.942211	0.08963	0.222822
709	C	0.930094	0.35883	0.333229
710	N	0.957847	0.375958	0.027183
711	C	0.977453	0.410471	0.029509
712	C	0.968916	0.430895	0.336087
713	N	0.941682	0.413841	0.308181
714	C	0.92203	0.379243	0.304856
715	H	0.997435	0.421058	0.051589
716	C	0.895463	0.365981	0.269123
717	O	0.898271	0.342512	0.239511
718	H	0.8967	0.386857	0.249029
719	H	0.870288	0.353048	0.28459
720	H	0.919886	0.355012	0.222777
721	C	0.76321	0.079077	0.008185
722	N	0.778393	0.079359	0.301766
723	C	0.807456	0.077788	0.297908
724	C	0.825472	0.079291	0.004032
725	N	0.810945	0.080289	0.043688
726	C	0.780269	0.078815	0.048355
727	H	0.818452	0.081101	0.266848
728	C	0.770308	0.080738	0.09553
729	O	0.7379	0.078497	0.102287
730	H	0.790456	0.103929	0.11144
731	H	0.768913	0.059072	0.113608
732	H	0.740692	0.101288	0.097796
733	C	0.930693	0.18689	0.008461
734	N	0.930004	0.201581	0.302037
735	C	0.931535	0.232189	0.298159
736	C	0.930215	0.248761	0.004365
737	N	0.929541	0.233399	0.044003
738	C	0.931078	0.204243	0.048615
739	H	0.9278	0.23957	0.267121
740	C	0.929575	0.192495	0.095767
741	O	0.931723	0.162273	0.102337
742	H	0.90656	0.189578	0.1121
743	H	0.95146	0.212764	0.113519
744	H	0.908861	0.142335	0.097989
745	C	0.822528	0.246197	0.00806
746	N	0.807638	0.231098	0.301625
747	C	0.776984	0.202074	0.297808
748	C	0.76048	0.18406	0.003941
749	N	0.776031	0.198568	0.043595
750	C	0.805248	0.229208	0.048274
751	H	0.769273	0.191085	0.266751
752	C	0.817141	0.239145	0.095449
753	O	0.84729	0.27154	0.102218
754	H	0.820209	0.219002	0.11133
755	H	0.796862	0.240528	0.113549
756	H	0.867306	0.268755	0.097759
757	C	0.541879	0.022333	0.336671
758	C	0.523065	0.039672	0.336516
759	C	0.986902	0.02198	0.33662
760	C	0.969558	0.48584	0.336494
761	C	0.987267	0.467385	0.336647
762	C	0.523423	0.486184	0.33654
763	H	0.943426	0.472652	0.336082
764	H	0.536627	0.473256	0.33615
765	H	0.536	0.065794	0.33612
766	C	0.742488	0.09434	0.33943
767	C	0.759272	0.13025	0.338449
768	C	0.741018	0.147947	0.33666
769	C	0.704984	0.128923	0.334742
770	C	0.687074	0.092617	0.334609
771	C	0.706465	0.075837	0.337883
772	H	0.691739	0.141769	0.332976
773	H	0.694409	0.049904	0.340828
774	H	0.785468	0.143864	0.339699
775	C	0.915301	0.150895	0.339521
776	C	0.879367	0.131832	0.338608
777	C	0.861597	0.095894	0.336755
778	C	0.880562	0.078827	0.33476
779	C	0.91688	0.097149	0.334635
780	C	0.933735	0.133306	0.337947
781	H	0.867655	0.052748	0.332956
782	H	0.959683	0.147126	0.340912
783	H	0.865794	0.144451	0.339959
784	C	0.858537	0.266885	0.33941
785	C	0.877642	0.250064	0.338513
786	C	0.913596	0.268265	0.336756
787	C	0.930635	0.304288	0.334869
788	C	0.912263	0.322236	0.334625
789	C	0.876083	0.302893	0.337819
790	H	0.956732	0.317492	0.333215
791	H	0.86221	0.314969	0.340673
792	H	0.865044	0.223881	0.339848
793	C	0.650473	0.073816	0.666556
794	N	0.633318	0.084409	0.360513
795	C	0.598788	0.069455	0.362858
796	C	0.578382	0.040484	0.669457
797	N	0.595461	0.030332	0.641557
798	C	0.630075	0.045316	0.638219
799	H	0.588177	0.078832	0.384929
800	C	0.643379	0.032038	0.602507
801	O	0.66681	0.058308	0.572855
802	H	0.622508	0.012359	0.582447
803	H	0.656377	0.01987	0.617994
804	H	0.654255	0.067355	0.556104
805	C	0.935605	0.07927	0.666556
806	N	0.924902	0.051471	0.360422
807	C	0.93978	0.031828	0.362744
808	C	0.968772	0.040354	0.669382
809	N	0.979039	0.067646	0.641578
810	C	0.964154	0.087365	0.638293
811	H	0.930311	0.011791	0.38473
812	C	0.977524	0.113961	0.602618
813	O	0.951297	0.111215	0.572933
814	H	0.9972	0.112732	0.582575
815	H	0.989741	0.139107	0.618136
816	H	0.942211	0.08963	0.556155
817	C	0.930094	0.35883	0.666563
818	N	0.957847	0.375958	0.360517
819	C	0.977453	0.410471	0.362841
820	C	0.968916	0.430895	0.66942
821	N	0.941682	0.413841	0.641514
822	C	0.92203	0.379243	0.638192
823	H	0.997435	0.421058	0.384922
824	C	0.895463	0.365981	0.602456
825	O	0.898271	0.342512	0.572845
826	H	0.8967	0.386857	0.582363
827	H	0.870288	0.353048	0.617923
828	H	0.919886	0.355012	0.556111
829	C	0.76321	0.079077	0.341519
830	N	0.778393	0.079359	0.635099
831	C	0.807456	0.077788	0.631241
832	C	0.825472	0.079291	0.337365
833	N	0.810945	0.080289	0.377022
834	C	0.780269	0.078815	0.381688
835	H	0.818452	0.081101	0.600182
836	C	0.770308	0.080738	0.428865
837	O	0.7379	0.078497	0.43562
838	H	0.790456	0.103929	0.444774
839	H	0.768913	0.059072	0.44694
840	H	0.740692	0.101288	0.431129
841	C	0.930693	0.18689	0.341795
842	N	0.930004	0.201581	0.635372
843	C	0.931535	0.232189	0.631494
844	C	0.930215	0.248761	0.337698
845	N	0.929541	0.233399	0.377339
846	C	0.931078	0.204243	0.381947
847	H	0.9278	0.23957	0.600455
848	C	0.929575	0.192495	0.429101
849	O	0.931723	0.162273	0.43567
850	H	0.90656	0.189578	0.445434
851	H	0.95146	0.212764	0.446852
852	H	0.908861	0.142335	0.431324
853	C	0.822528	0.246197	0.341394
854	N	0.807638	0.231098	0.634957
855	C	0.776984	0.202074	0.63114
856	C	0.76048	0.18406	0.337274
857	N	0.776031	0.198568	0.376927
858	C	0.805248	0.229208	0.381607
859	H	0.769273	0.191085	0.600084
860	C	0.817141	0.239145	0.428784
861	O	0.84729	0.27154	0.435553
862	H	0.820209	0.219002	0.444663
863	H	0.796862	0.240528	0.446883
864	H	0.867306	0.268755	0.431092
865	C	0.541879	0.022333	0.670006
866	C	0.523065	0.039672	0.669851
867	C	0.986902	0.02198	0.669955
868	C	0.969558	0.48584	0.669827
869	C	0.987267	0.467385	0.669982
870	C	0.523423	0.486184	0.669874
871	H	0.943426	0.472652	0.669416
872	H	0.536627	0.473256	0.669484
873	H	0.536	0.065794	0.669453
874	C	0.742488	0.09434	0.672765
875	C	0.759272	0.13025	0.671785
876	C	0.741018	0.147947	0.669992
877	C	0.704984	0.128923	0.668075
878	C	0.687074	0.092617	0.667944
879	C	0.706465	0.075837	0.671219
880	H	0.691739	0.141769	0.66631
881	H	0.694409	0.049904	0.67416
882	H	0.785468	0.143864	0.673031
883	C	0.915301	0.150895	0.672853
884	C	0.879367	0.131832	0.67194
885	C	0.861597	0.095894	0.67009
886	C	0.880562	0.078827	0.668092
887	C	0.91688	0.097149	0.667967
888	C	0.933735	0.133306	0.671279
889	H	0.867655	0.052748	0.66629
890	H	0.959683	0.147126	0.674244
891	H	0.865794	0.144451	0.673291
892	C	0.858537	0.266885	0.672745
893	C	0.877642	0.250064	0.671849
894	C	0.913596	0.268265	0.67009
895	C	0.930635	0.304288	0.668203
896	C	0.912263	0.322236	0.667957
897	C	0.876083	0.302893	0.671151
898	H	0.956732	0.317492	0.666549
899	H	0.86221	0.314969	0.674005
900	H	0.865044	0.223881	0.673179
901	C	0.650473	0.073816	0.999891
902	N	0.633318	0.084409	0.693849
903	C	0.598788	0.069455	0.69619
904	C	0.578382	0.040484	0.002792
905	N	0.595461	0.030332	0.974889
906	C	0.630075	0.045316	0.971554
907	H	0.588177	0.078832	0.718264
908	C	0.643379	0.032038	0.935842
909	O	0.66681	0.058308	0.906187
910	H	0.622508	0.012359	0.915782
911	H	0.656377	0.01987	0.951326
912	H	0.654255	0.067355	0.88944
913	C	0.935605	0.07927	0.999888
914	N	0.924902	0.051471	0.693758
915	C	0.93978	0.031828	0.696079
916	C	0.968772	0.040354	0.002718
917	N	0.979039	0.067646	0.974913
918	C	0.964154	0.087365	0.971628
919	H	0.930311	0.011791	0.718065
920	C	0.977524	0.113961	0.93595
921	O	0.951297	0.111215	0.906268
922	H	0.9972	0.112732	0.915907
923	H	0.989741	0.139107	0.951471
924	H	0.942211	0.08963	0.88949
925	C	0.930094	0.35883	0.999898
926	N	0.957847	0.375958	0.693852
927	C	0.977453	0.410471	0.696177
928	C	0.968916	0.430895	0.002755
929	N	0.941682	0.413841	0.974849
930	C	0.92203	0.379243	0.971523
931	H	0.997435	0.421058	0.718257
932	C	0.895463	0.365981	0.935791
933	O	0.898271	0.342512	0.90618
934	H	0.8967	0.386857	0.915698
935	H	0.870288	0.353048	0.951259
936	H	0.919886	0.355012	0.889443
937	C	0.76321	0.079077	0.674854
938	N	0.778393	0.079359	0.968434
939	C	0.807456	0.077788	0.964576
940	C	0.825472	0.079291	0.6707
941	N	0.810945	0.080289	0.710357
942	C	0.780269	0.078815	0.715023
943	H	0.818452	0.081101	0.933517
944	C	0.770308	0.080738	0.762197
945	O	0.7379	0.078497	0.768955
946	H	0.790456	0.103929	0.778109
947	H	0.768913	0.059072	0.780275
948	H	0.740692	0.101288	0.764464
949	C	0.930693	0.18689	0.675127
950	N	0.930004	0.201581	0.968704
951	C	0.931535	0.232189	0.964826
952	C	0.930215	0.248761	0.671033
953	N	0.929541	0.233399	0.71067
954	C	0.931078	0.204243	0.715283
955	H	0.9278	0.23957	0.933787
956	C	0.929575	0.192495	0.762436
957	O	0.931723	0.162273	0.769006
958	H	0.90656	0.189578	0.778766
959	H	0.95146	0.212764	0.780188
960	H	0.908861	0.142335	0.764656
961	C	0.822528	0.246197	0.674729
962	N	0.807638	0.231098	0.968293
963	C	0.776984	0.202074	0.964475
964	C	0.76048	0.18406	0.670605
965	N	0.776031	0.198568	0.710263
966	C	0.805248	0.229208	0.714942
967	H	0.769273	0.191085	0.933419
968	C	0.817141	0.239145	0.762116
969	O	0.84729	0.27154	0.768884
970	H	0.820209	0.219002	0.777998
971	H	0.796862	0.240528	0.780218
972	H	0.867306	0.268755	0.764427
973	C	0.541878	0.522335	0.003338
974	C	0.523067	0.539673	0.003183
975	C	0.986901	0.52198	0.003287
976	C	0.969558	0.985843	0.003162
977	C	0.987268	0.967385	0.003314
978	C	0.523424	0.986185	0.003206
979	H	0.943425	0.972652	0.002748
980	H	0.536628	0.973256	0.002819
981	H	0.536001	0.565794	0.002788
982	C	0.742486	0.594339	0.006097
983	C	0.759273	0.63025	0.005116
984	C	0.741017	0.647947	0.003327
985	C	0.704983	0.628924	0.00141
986	C	0.687075	0.592618	0.001276
987	C	0.706465	0.575838	0.00455
988	H	0.69174	0.64177	0.999645
989	H	0.694409	0.549905	0.007493
990	H	0.785467	0.643864	0.006364
991	C	0.9153	0.650896	0.006186
992	C	0.879367	0.631834	0.005275
993	C	0.861598	0.595895	0.003422
994	C	0.880561	0.578827	0.001427
995	C	0.916882	0.59715	0.001303
996	C	0.933737	0.633308	0.004614
997	H	0.867657	0.552749	0.999625
998	H	0.959682	0.647126	0.007578
999	H	0.865795	0.644451	0.006623
1000	C	0.858536	0.766886	0.006076
1001	C	0.877644	0.750065	0.005184
1002	C	0.913597	0.768265	0.003422
1003	C	0.930636	0.804288	0.001535
1004	C	0.912262	0.822236	0.001293
1005	C	0.876084	0.802893	0.004486
1006	H	0.956731	0.817492	0.999884
1007	H	0.862211	0.81497	0.007338
1008	H	0.865046	0.723882	0.006512
1009	C	0.650472	0.573816	0.333224
1010	N	0.633317	0.584408	0.02718
1011	C	0.598788	0.569457	0.029524
1012	C	0.578381	0.540484	0.336124
1013	N	0.595462	0.530333	0.308222
1014	C	0.630077	0.545317	0.304886
1015	H	0.588176	0.578832	0.051595
1016	C	0.643378	0.532039	0.269174
1017	O	0.666809	0.558309	0.23952
1018	H	0.622509	0.51236	0.249113
1019	H	0.656377	0.519871	0.28466
1020	H	0.654254	0.567355	0.222771
1021	C	0.935607	0.579271	0.333221
1022	N	0.924903	0.551471	0.02709
1023	C	0.939781	0.531827	0.029411
1024	C	0.968774	0.540356	0.336049
1025	N	0.97904	0.567646	0.308245
1026	C	0.964155	0.587366	0.304961
1027	H	0.93031	0.511791	0.051396
1028	C	0.977526	0.613963	0.269283
1029	O	0.951298	0.611216	0.239599
1030	H	0.997199	0.612733	0.24924
1031	H	0.989742	0.639108	0.284802
1032	H	0.942211	0.589631	0.222822
1033	C	0.930093	0.85883	0.333229
1034	N	0.957846	0.875959	0.027183
1035	C	0.977452	0.910472	0.029509
1036	C	0.968917	0.930896	0.336087
1037	N	0.941683	0.913841	0.308181
1038	C	0.92203	0.879246	0.304856
1039	H	0.997436	0.921059	0.051589
1040	C	0.895466	0.865984	0.269123
1041	O	0.898272	0.842512	0.239511
1042	H	0.896701	0.886857	0.249029
1043	H	0.870287	0.853048	0.28459
1044	H	0.919885	0.855012	0.222777
1045	C	0.763211	0.579077	0.008185
1046	N	0.778392	0.57936	0.301766
1047	C	0.807455	0.577789	0.297908
1048	C	0.825473	0.579292	0.004032
1049	N	0.810944	0.580289	0.043688
1050	C	0.78027	0.578815	0.048355
1051	H	0.818454	0.581102	0.266848
1052	C	0.770309	0.580738	0.09553
1053	O	0.737902	0.578498	0.102287
1054	H	0.790457	0.603929	0.11144
1055	H	0.768915	0.559074	0.113608
1056	H	0.740693	0.601289	0.097796
1057	C	0.930692	0.68689	0.008461
1058	N	0.930005	0.701581	0.302037
1059	C	0.931536	0.732189	0.298159
1060	C	0.930216	0.748762	0.004365
1061	N	0.92954	0.733401	0.044003
1062	C	0.93108	0.704244	0.048615
1063	H	0.927801	0.73957	0.267121
1064	C	0.929575	0.692496	0.095767
1065	O	0.931722	0.662273	0.102337
1066	H	0.906559	0.689579	0.1121
1067	H	0.951459	0.712765	0.113519
1068	H	0.908861	0.642336	0.097989
1069	C	0.82253	0.746199	0.00806
1070	N	0.807639	0.731098	0.301625
1071	C	0.776983	0.702073	0.297808
1072	C	0.76048	0.684062	0.003941
1073	N	0.776033	0.698569	0.043595
1074	C	0.805247	0.729208	0.048274
1075	H	0.769274	0.691086	0.266751
1076	C	0.817143	0.739147	0.095449
1077	O	0.847291	0.771543	0.102218
1078	H	0.820209	0.719003	0.11133
1079	H	0.796863	0.740529	0.113549
1080	H	0.867307	0.768755	0.097759
1081	C	0.541878	0.522335	0.336671
1082	C	0.523067	0.539673	0.336516
1083	C	0.986901	0.52198	0.33662
1084	C	0.969558	0.985843	0.336494
1085	C	0.987268	0.967385	0.336647
1086	C	0.523424	0.986185	0.33654
1087	H	0.943425	0.972652	0.336082
1088	H	0.536628	0.973256	0.33615
1089	H	0.536001	0.565794	0.33612
1090	C	0.742486	0.594339	0.33943
1091	C	0.759273	0.63025	0.338449
1092	C	0.741017	0.647947	0.33666
1093	C	0.704983	0.628924	0.334742
1094	C	0.687075	0.592618	0.334609
1095	C	0.706465	0.575838	0.337883
1096	H	0.69174	0.64177	0.332976
1097	H	0.694409	0.549905	0.340828
1098	H	0.785467	0.643864	0.339699
1099	C	0.9153	0.650896	0.339521
1100	C	0.879367	0.631834	0.338608
1101	C	0.861598	0.595895	0.336755
1102	C	0.880561	0.578827	0.33476
1103	C	0.916882	0.59715	0.334635
1104	C	0.933737	0.633308	0.337947
1105	H	0.867657	0.552749	0.332956
1106	H	0.959682	0.647126	0.340912
1107	H	0.865795	0.644451	0.339959
1108	C	0.858536	0.766886	0.33941
1109	C	0.877644	0.750065	0.338513
1110	C	0.913597	0.768265	0.336756
1111	C	0.930636	0.804288	0.334869
1112	C	0.912262	0.822236	0.334625
1113	C	0.876084	0.802893	0.337819
1114	H	0.956731	0.817492	0.333215
1115	H	0.862211	0.81497	0.340673
1116	H	0.865046	0.723882	0.339848
1117	C	0.650472	0.573816	0.666556
1118	N	0.633317	0.584408	0.360513
1119	C	0.598788	0.569457	0.362858
1120	C	0.578381	0.540484	0.669457
1121	N	0.595462	0.530333	0.641557
1122	C	0.630077	0.545317	0.638219
1123	H	0.588176	0.578832	0.384929
1124	C	0.643378	0.532039	0.602507
1125	O	0.666809	0.558309	0.572855
1126	H	0.622509	0.51236	0.582447
1127	H	0.656377	0.519871	0.617994
1128	H	0.654254	0.567355	0.556104
1129	C	0.935607	0.579271	0.666556
1130	N	0.924903	0.551471	0.360422
1131	C	0.939781	0.531827	0.362744
1132	C	0.968774	0.540356	0.669382
1133	N	0.97904	0.567646	0.641578
1134	C	0.964155	0.587366	0.638293
1135	H	0.93031	0.511791	0.38473
1136	C	0.977526	0.613963	0.602618
1137	O	0.951298	0.611216	0.572933
1138	H	0.997199	0.612733	0.582575
1139	H	0.989742	0.639108	0.618136
1140	H	0.942211	0.589631	0.556155
1141	C	0.930093	0.85883	0.666563
1142	N	0.957846	0.875959	0.360517
1143	C	0.977452	0.910472	0.362841
1144	C	0.968917	0.930896	0.66942
1145	N	0.941683	0.913841	0.641514
1146	C	0.92203	0.879246	0.638192
1147	H	0.997436	0.921059	0.384922
1148	C	0.895466	0.865984	0.602456
1149	O	0.898272	0.842512	0.572845
1150	H	0.896701	0.886857	0.582363
1151	H	0.870287	0.853048	0.617923
1152	H	0.919885	0.855012	0.556111
1153	C	0.763211	0.579077	0.341519
1154	N	0.778392	0.57936	0.635099
1155	C	0.807455	0.577789	0.631241
1156	C	0.825473	0.579292	0.337365
1157	N	0.810944	0.580289	0.377022
1158	C	0.78027	0.578815	0.381688
1159	H	0.818454	0.581102	0.600182
1160	C	0.770309	0.580738	0.428865
1161	O	0.737902	0.578498	0.43562
1162	H	0.790457	0.603929	0.444774
1163	H	0.768915	0.559074	0.44694
1164	H	0.740693	0.601289	0.431129
1165	C	0.930692	0.68689	0.341795
1166	N	0.930005	0.701581	0.635372
1167	C	0.931536	0.732189	0.631494
1168	C	0.930216	0.748762	0.337698
1169	N	0.92954	0.733401	0.377339
1170	C	0.93108	0.704244	0.381947
1171	H	0.927801	0.73957	0.600455
1172	C	0.929575	0.692496	0.429101
1173	O	0.931722	0.662273	0.43567
1174	H	0.906559	0.689579	0.445434
1175	H	0.951459	0.712765	0.446852
1176	H	0.908861	0.642336	0.431324
1177	C	0.82253	0.746199	0.341394
1178	N	0.807639	0.731098	0.634957
1179	C	0.776983	0.702073	0.63114
1180	C	0.76048	0.684062	0.337274
1181	N	0.776033	0.698569	0.376927
1182	C	0.805247	0.729208	0.381607
1183	H	0.769274	0.691086	0.600084
1184	C	0.817143	0.739147	0.428784
1185	O	0.847291	0.771543	0.435553
1186	H	0.820209	0.719003	0.444663
1187	H	0.796863	0.740529	0.446883
1188	H	0.867307	0.768755	0.431092
1189	C	0.541878	0.522335	0.670006
1190	C	0.523067	0.539673	0.669851
1191	C	0.986901	0.52198	0.669955
1192	C	0.969558	0.985843	0.669827
1193	C	0.987268	0.967385	0.669982
1194	C	0.523424	0.986185	0.669874
1195	H	0.943425	0.972652	0.669416
1196	H	0.536628	0.973256	0.669484
1197	H	0.536001	0.565794	0.669453
1198	C	0.742486	0.594339	0.672765
1199	C	0.759273	0.63025	0.671785
1200	C	0.741017	0.647947	0.669992
1201	C	0.704983	0.628924	0.668075
1202	C	0.687075	0.592618	0.667944
1203	C	0.706465	0.575838	0.671219
1204	H	0.69174	0.64177	0.66631
1205	H	0.694409	0.549905	0.67416
1206	H	0.785467	0.643864	0.673031
1207	C	0.9153	0.650896	0.672853
1208	C	0.879367	0.631834	0.67194
1209	C	0.861598	0.595895	0.67009
1210	C	0.880561	0.578827	0.668092
1211	C	0.916882	0.59715	0.667967
1212	C	0.933737	0.633308	0.671279
1213	H	0.867657	0.552749	0.66629
1214	H	0.959682	0.647126	0.674244
1215	H	0.865795	0.644451	0.673291
1216	C	0.858536	0.766886	0.672745
1217	C	0.877644	0.750065	0.671849
1218	C	0.913597	0.768265	0.67009
1219	C	0.930636	0.804288	0.668203
1220	C	0.912262	0.822236	0.667957
1221	C	0.876084	0.802893	0.671151
1222	H	0.956731	0.817492	0.666549
1223	H	0.862211	0.81497	0.674005
1224	H	0.865046	0.723882	0.673179
1225	C	0.650472	0.573816	0.999891
1226	N	0.633317	0.584408	0.693849
1227	C	0.598788	0.569457	0.69619
1228	C	0.578381	0.540484	0.002792
1229	N	0.595462	0.530333	0.974889
1230	C	0.630077	0.545317	0.971554
1231	H	0.588176	0.578832	0.718264
1232	C	0.643378	0.532039	0.935842
1233	O	0.666809	0.558309	0.906187
1234	H	0.622509	0.51236	0.915782
1235	H	0.656377	0.519871	0.951326
1236	H	0.654254	0.567355	0.88944
1237	C	0.935607	0.579271	0.999888
1238	N	0.924903	0.551471	0.693758
1239	C	0.939781	0.531827	0.696079
1240	C	0.968774	0.540356	0.002718
1241	N	0.97904	0.567646	0.974913
1242	C	0.964155	0.587366	0.971628
1243	H	0.93031	0.511791	0.718065
1244	C	0.977526	0.613963	0.93595
1245	O	0.951298	0.611216	0.906268
1246	H	0.997199	0.612733	0.915907
1247	H	0.989742	0.639108	0.951471
1248	H	0.942211	0.589631	0.88949
1249	C	0.930093	0.85883	0.999898
1250	N	0.957846	0.875959	0.693852
1251	C	0.977452	0.910472	0.696177
1252	C	0.968917	0.930896	0.002755
1253	N	0.941683	0.913841	0.974849
1254	C	0.92203	0.879246	0.971523
1255	H	0.997436	0.921059	0.718257
1256	C	0.895466	0.865984	0.935791
1257	O	0.898272	0.842512	0.90618
1258	H	0.896701	0.886857	0.915698
1259	H	0.870287	0.853048	0.951259
1260	H	0.919885	0.855012	0.889443
1261	C	0.763211	0.579077	0.674854
1262	N	0.778392	0.57936	0.968434
1263	C	0.807455	0.577789	0.964576
1264	C	0.825473	0.579292	0.6707
1265	N	0.810944	0.580289	0.710357
1266	C	0.78027	0.578815	0.715023
1267	H	0.818454	0.581102	0.933517
1268	C	0.770309	0.580738	0.762197
1269	O	0.737902	0.578498	0.768955
1270	H	0.790457	0.603929	0.778109
1271	H	0.768915	0.559074	0.780275
1272	H	0.740693	0.601289	0.764464
1273	C	0.930692	0.68689	0.675127
1274	N	0.930005	0.701581	0.968704
1275	C	0.931536	0.732189	0.964826
1276	C	0.930216	0.748762	0.671033
1277	N	0.92954	0.733401	0.71067
1278	C	0.93108	0.704244	0.715283
1279	H	0.927801	0.73957	0.933787
1280	C	0.929575	0.692496	0.762436
1281	O	0.931722	0.662273	0.769006
1282	H	0.906559	0.689579	0.778766
1283	H	0.951459	0.712765	0.780188
1284	H	0.908861	0.642336	0.764656
1285	C	0.82253	0.746199	0.674729
1286	N	0.807639	0.731098	0.968293
1287	C	0.776983	0.702073	0.964475
1288	C	0.76048	0.684062	0.670605
1289	N	0.776033	0.698569	0.710263
1290	C	0.805247	0.729208	0.714942
1291	H	0.769274	0.691086	0.933419
1292	C	0.817143	0.739147	0.762116
1293	O	0.847291	0.771543	0.768884
1294	H	0.820209	0.719003	0.777998
1295	H	0.796863	0.740529	0.780218
1296	H	0.867307	0.768755	0.764427
