data_C432H504N144_2018-02-15_10:33:57
#******************************************
#
# CIF file created by Zeo++
# Zeo++ is an open source package to
# analyze microporous materials
#
#*******************************************

_cell_length_a		43.4408   
_cell_length_b		43.4408   
_cell_length_c		30.0306   
_cell_angle_alpha		90   
_cell_angle_beta		90   
_cell_angle_gamma		120   

_symmetry_space_group_name_H-M		'P1'
_symmetry_Int_Tables_number		1
_symmetry_cell_setting		Monoclinic

loop_
_symmetry_equiv_pos_as_xyz
'+x,+y,+z'

loop_
_atom_site_label
_atom_site_type_symbol
_atom_site_fract_x
_atom_site_fract_y
_atom_site_fract_z
1	C	0.188076	0.315131	0.039206
2	N	0.20423	0.351002	0.034713
3	C	0.185204	0.368105	0.034111
4	N	0.149316	0.34844	0.03817
5	C	0.132433	0.312516	0.042427
6	N	0.152148	0.296152	0.042999
7	N	0.200868	0.405281	0.028548
8	H	0.189912	0.409395	0.000423
9	N	0.094949	0.292995	0.044877
10	H	0.086701	0.266966	0.052744
11	N	0.207776	0.297351	0.039457
12	H	0.234268	0.315511	0.044056
13	C	0.312976	0.17938	0.957507
14	N	0.300837	0.143834	0.956735
15	C	0.323648	0.131017	0.957011
16	N	0.359158	0.154422	0.958693
17	C	0.371968	0.190024	0.959502
18	N	0.348589	0.202183	0.959059
19	N	0.310172	0.093935	0.959326
20	H	0.330736	0.089107	0.953805
21	N	0.408914	0.213326	0.963888
22	H	0.414587	0.238982	0.95819
23	N	0.289393	0.192856	0.959845
24	H	0.263906	0.172626	0.953868
25	C	0.22318	0.256974	0.334589
26	C	0.253176	0.268128	0.306976
27	C	0.273787	0.251783	0.308935
28	C	0.265402	0.223486	0.005211
29	C	0.23497	0.211259	0.033516
30	H	0.2955	0.261129	0.288444
31	H	0.260828	0.288859	0.285231
32	C	0.213668	0.228077	0.031475
33	C	0.226526	0.181022	0.064597
34	H	0.248522	0.188806	0.087852
35	H	0.222628	0.157949	0.045526
36	H	0.202799	0.172119	0.08475
37	C	0.181698	0.215205	0.060909
38	H	0.16685	0.229063	0.057153
39	H	0.189866	0.218107	0.095748
40	H	0.16303	0.187271	0.053851
41	C	0.290156	0.208824	0.004017
42	H	0.284543	0.189076	0.029875
43	H	0.31699	0.230831	0.010736
44	C	0.203789	0.277275	0.331044
45	H	0.175835	0.258466	0.323934
46	H	0.213437	0.296059	0.303129
47	C	0.253016	0.465282	0.355354
48	C	0.264726	0.481914	0.313614
49	C	0.277236	0.018169	0.308272
50	C	0.278836	0.03968	0.011096
51	C	0.265705	0.023225	0.053608
52	H	0.285194	0.028483	0.277063
53	H	0.264275	0.467677	0.286193
54	C	0.253058	0.485888	0.059211
55	C	0.264866	0.044493	0.092462
56	H	0.273634	0.072221	0.085539
57	H	0.281954	0.044273	0.118955
58	H	0.237676	0.03291	0.104815
59	C	0.240195	0.467305	0.103178
60	H	0.256705	0.456205	0.113556
61	H	0.212725	0.445838	0.100192
62	H	0.240714	0.483921	0.130521
63	C	0.294294	0.078836	0.003686
64	H	0.315098	0.092693	0.02873
65	H	0.272892	0.084659	0.009783
66	C	0.240207	0.426253	0.357559
67	H	0.25288	0.421078	0.385717
68	H	0.248048	0.41712	0.32791
69	C	0.037972	0.274821	0.340453
70	C	0.018463	0.243758	0.3148
71	C	0.481436	0.224321	0.316523
72	C	0.46213	0.234815	0.010909
73	C	0.481047	0.266002	0.037798
74	H	0.468544	0.202041	0.297052
75	H	0.031045	0.234767	0.294174
76	C	0.019222	0.286347	0.035567
77	C	0.459888	0.276363	0.067352
78	H	0.444758	0.255071	0.091191
79	H	0.441548	0.280797	0.047199
80	H	0.475288	0.30035	0.086866
81	C	0.039007	0.319629	0.062605
82	H	0.067662	0.333964	0.058236
83	H	0.034088	0.313172	0.097961
84	H	0.030005	0.338198	0.053675
85	C	0.422516	0.211641	0.00882
86	H	0.408639	0.218393	0.033808
87	H	0.41611	0.184372	0.016159
88	C	0.077584	0.29376	0.335834
89	H	0.086447	0.321077	0.325505
90	H	0.086102	0.282208	0.309445
91	C	0.188076	0.315131	0.37254
92	N	0.20423	0.351002	0.368045
93	C	0.185204	0.368105	0.367442
94	N	0.149316	0.34844	0.371505
95	C	0.132433	0.312516	0.37576
96	N	0.152148	0.296152	0.376333
97	N	0.200868	0.405281	0.361881
98	H	0.189912	0.409395	0.333756
99	N	0.094949	0.292995	0.378211
100	H	0.086701	0.266966	0.386076
101	N	0.207776	0.297351	0.37279
102	H	0.234268	0.315511	0.377389
103	C	0.312976	0.17938	0.29084
104	N	0.300837	0.143834	0.290069
105	C	0.323648	0.131017	0.290346
106	N	0.359158	0.154422	0.292028
107	C	0.371968	0.190024	0.292837
108	N	0.348589	0.202183	0.292393
109	N	0.310172	0.093935	0.292658
110	H	0.330736	0.089107	0.287139
111	N	0.408914	0.213326	0.297222
112	H	0.414587	0.238982	0.291525
113	N	0.289393	0.192856	0.293179
114	H	0.263906	0.172626	0.287201
115	C	0.22318	0.256974	0.667923
116	C	0.253176	0.268128	0.640311
117	C	0.273787	0.251783	0.642269
118	C	0.265402	0.223486	0.338545
119	C	0.23497	0.211259	0.366849
120	H	0.2955	0.261129	0.621776
121	H	0.260828	0.288859	0.618563
122	C	0.213668	0.228077	0.364808
123	C	0.226526	0.181022	0.397931
124	H	0.248522	0.188806	0.421184
125	H	0.222628	0.157949	0.378857
126	H	0.202799	0.172119	0.418084
127	C	0.181698	0.215205	0.394242
128	H	0.16685	0.229063	0.390485
129	H	0.189866	0.218107	0.429083
130	H	0.16303	0.187271	0.387185
131	C	0.290156	0.208824	0.337349
132	H	0.284543	0.189076	0.36321
133	H	0.31699	0.230831	0.344069
134	C	0.203789	0.277275	0.664376
135	H	0.175835	0.258466	0.657267
136	H	0.213437	0.296059	0.636461
137	C	0.253016	0.465282	0.688688
138	C	0.264726	0.481914	0.646947
139	C	0.277236	0.018169	0.641606
140	C	0.278836	0.03968	0.344429
141	C	0.265705	0.023225	0.386942
142	H	0.285194	0.028483	0.610395
143	H	0.264275	0.467677	0.619525
144	C	0.253058	0.485888	0.392543
145	C	0.264866	0.044493	0.425796
146	H	0.273634	0.072221	0.418873
147	H	0.281954	0.044273	0.452289
148	H	0.237676	0.03291	0.438147
149	C	0.240195	0.467305	0.436512
150	H	0.256705	0.456205	0.446888
151	H	0.212725	0.445838	0.433525
152	H	0.240714	0.483921	0.463854
153	C	0.294294	0.078836	0.33702
154	H	0.315098	0.092693	0.362064
155	H	0.272892	0.084659	0.343117
156	C	0.240207	0.426253	0.690892
157	H	0.25288	0.421078	0.71905
158	H	0.248048	0.41712	0.661243
159	C	0.037972	0.274821	0.673783
160	C	0.018463	0.243758	0.648133
161	C	0.481436	0.224321	0.649858
162	C	0.46213	0.234815	0.344242
163	C	0.481047	0.266002	0.371132
164	H	0.468544	0.202041	0.630384
165	H	0.031045	0.234767	0.627507
166	C	0.019222	0.286347	0.368901
167	C	0.459888	0.276363	0.400685
168	H	0.444758	0.255071	0.424524
169	H	0.441548	0.280797	0.380532
170	H	0.475288	0.30035	0.420198
171	C	0.039007	0.319629	0.39594
172	H	0.067662	0.333964	0.391568
173	H	0.034088	0.313172	0.431294
174	H	0.030005	0.338198	0.387009
175	C	0.422516	0.211641	0.342155
176	H	0.408639	0.218393	0.367139
177	H	0.41611	0.184372	0.349494
178	C	0.077584	0.29376	0.669168
179	H	0.086447	0.321077	0.658838
180	H	0.086102	0.282208	0.642778
181	C	0.188076	0.315131	0.705871
182	N	0.20423	0.351002	0.701378
183	C	0.185204	0.368105	0.700776
184	N	0.149316	0.34844	0.704835
185	C	0.132433	0.312516	0.709094
186	N	0.152148	0.296152	0.709667
187	N	0.200868	0.405281	0.695215
188	H	0.189912	0.409395	0.66709
189	N	0.094949	0.292995	0.711545
190	H	0.086701	0.266966	0.71941
191	N	0.207776	0.297351	0.706124
192	H	0.234268	0.315511	0.710722
193	C	0.312976	0.17938	0.624174
194	N	0.300837	0.143834	0.623401
195	C	0.323648	0.131017	0.623681
196	N	0.359158	0.154422	0.625363
197	C	0.371968	0.190024	0.626172
198	N	0.348589	0.202183	0.625726
199	N	0.310172	0.093935	0.625992
200	H	0.330736	0.089107	0.620471
201	N	0.408914	0.213326	0.630554
202	H	0.414587	0.238982	0.624856
203	N	0.289393	0.192856	0.626511
204	H	0.263906	0.172626	0.620534
205	C	0.22318	0.256974	0.001255
206	C	0.253176	0.268128	0.973641
207	C	0.273787	0.251783	0.975602
208	C	0.265402	0.223486	0.671875
209	C	0.23497	0.211259	0.700183
210	H	0.2955	0.261129	0.95511
211	H	0.260828	0.288859	0.951896
212	C	0.213668	0.228077	0.698142
213	C	0.226526	0.181022	0.731265
214	H	0.248522	0.188806	0.754518
215	H	0.222628	0.157949	0.712191
216	H	0.202799	0.172119	0.751417
217	C	0.181698	0.215205	0.727575
218	H	0.16685	0.229063	0.723819
219	H	0.189866	0.218107	0.762413
220	H	0.16303	0.187271	0.720519
221	C	0.290156	0.208824	0.670683
222	H	0.284543	0.189076	0.69654
223	H	0.31699	0.230831	0.677403
224	C	0.203789	0.277275	0.99771
225	H	0.175835	0.258466	0.9906
226	H	0.213437	0.296059	0.969795
227	C	0.253016	0.465282	0.022022
228	C	0.264726	0.481914	0.980281
229	C	0.277236	0.018169	0.97494
230	C	0.278836	0.03968	0.677763
231	C	0.265705	0.023225	0.720276
232	H	0.285194	0.028483	0.943728
233	H	0.264275	0.467677	0.952859
234	C	0.253058	0.485888	0.725877
235	C	0.264866	0.044493	0.75913
236	H	0.273634	0.072221	0.752207
237	H	0.281954	0.044273	0.785623
238	H	0.237676	0.03291	0.77148
239	C	0.240195	0.467305	0.769845
240	H	0.256705	0.456205	0.780221
241	H	0.212725	0.445838	0.766858
242	H	0.240714	0.483921	0.797187
243	C	0.294294	0.078836	0.670353
244	H	0.315098	0.092693	0.695395
245	H	0.272892	0.084659	0.676451
246	C	0.240207	0.426253	0.024226
247	H	0.25288	0.421078	0.052385
248	H	0.248048	0.41712	0.994576
249	C	0.037972	0.274821	0.007119
250	C	0.018463	0.243758	0.981466
251	C	0.481436	0.224321	0.983188
252	C	0.46213	0.234815	0.677576
253	C	0.481047	0.266002	0.704465
254	H	0.468544	0.202041	0.963718
255	H	0.031045	0.234767	0.960841
256	C	0.019222	0.286347	0.702234
257	C	0.459888	0.276363	0.734019
258	H	0.444758	0.255071	0.757858
259	H	0.441548	0.280797	0.713866
260	H	0.475288	0.30035	0.753532
261	C	0.039007	0.319629	0.72927
262	H	0.067662	0.333964	0.724901
263	H	0.034088	0.313172	0.764627
264	H	0.030005	0.338198	0.720342
265	C	0.422516	0.211641	0.675485
266	H	0.408639	0.218393	0.700473
267	H	0.41611	0.184372	0.682824
268	C	0.077584	0.29376	0.002501
269	H	0.086447	0.321077	0.992172
270	H	0.086102	0.282208	0.976112
271	C	0.188076	0.815131	0.039206
272	N	0.20423	0.851002	0.034713
273	C	0.185203	0.868104	0.034111
274	N	0.149317	0.848439	0.03817
275	C	0.132432	0.812515	0.042427
276	N	0.152148	0.796152	0.042999
277	N	0.200868	0.90528	0.028548
278	H	0.189913	0.909398	0.000423
279	N	0.094949	0.792994	0.044877
280	H	0.0867	0.766966	0.052744
281	N	0.207777	0.797353	0.039457
282	H	0.234268	0.815511	0.044056
283	C	0.312977	0.679381	0.957507
284	N	0.300838	0.643835	0.956735
285	C	0.323648	0.631017	0.957011
286	N	0.359158	0.654422	0.958693
287	C	0.371968	0.690025	0.959502
288	N	0.34859	0.702183	0.959059
289	N	0.310172	0.593937	0.959326
290	H	0.330737	0.589107	0.953805
291	N	0.408913	0.713325	0.963888
292	H	0.414586	0.738981	0.95819
293	N	0.289393	0.692855	0.959845
294	H	0.263906	0.672627	0.953868
295	C	0.223181	0.756974	0.334589
296	C	0.253177	0.76813	0.306976
297	C	0.273788	0.751783	0.308935
298	C	0.265402	0.723485	0.005211
299	C	0.234971	0.71126	0.033516
300	H	0.295499	0.761129	0.288444
301	H	0.260828	0.788858	0.285232
302	C	0.213667	0.728075	0.031474
303	C	0.226526	0.681022	0.064597
304	H	0.248523	0.688807	0.087852
305	H	0.222629	0.657949	0.045525
306	H	0.202799	0.67212	0.084749
307	C	0.181699	0.715205	0.060909
308	H	0.166849	0.729061	0.057153
309	H	0.189866	0.718107	0.095748
310	H	0.16303	0.687271	0.053851
311	C	0.290157	0.708825	0.004017
312	H	0.284543	0.689076	0.029875
313	H	0.316991	0.730832	0.010736
314	C	0.203789	0.777274	0.331044
315	H	0.175834	0.758465	0.323934
316	H	0.213437	0.796059	0.30313
317	C	0.253017	0.965284	0.355354
318	C	0.264726	0.981913	0.313614
319	C	0.277235	0.51817	0.308272
320	C	0.278835	0.53968	0.011096
321	C	0.265707	0.523226	0.053608
322	H	0.285195	0.528484	0.277063
323	H	0.264274	0.967676	0.286193
324	C	0.25306	0.98589	0.059211
325	C	0.264866	0.544493	0.092462
326	H	0.273634	0.57222	0.085539
327	H	0.281955	0.544273	0.118955
328	H	0.237676	0.532909	0.104814
329	C	0.240194	0.967304	0.103178
330	H	0.256705	0.956204	0.113556
331	H	0.212726	0.945838	0.100192
332	H	0.240716	0.983923	0.130521
333	C	0.294293	0.578836	0.003686
334	H	0.315098	0.592693	0.02873
335	H	0.272891	0.58466	0.009783
336	C	0.240207	0.926253	0.357559
337	H	0.252879	0.921077	0.385717
338	H	0.248048	0.917119	0.327911
339	C	0.037972	0.774821	0.340453
340	C	0.018462	0.743758	0.314801
341	C	0.481437	0.724322	0.316523
342	C	0.462131	0.734816	0.010909
343	C	0.481047	0.766001	0.037797
344	H	0.468543	0.702042	0.297052
345	H	0.031046	0.734768	0.294174
346	C	0.019223	0.786346	0.035567
347	C	0.459888	0.776362	0.067351
348	H	0.444758	0.755071	0.091191
349	H	0.441549	0.780796	0.047198
350	H	0.475289	0.800349	0.086865
351	C	0.039006	0.819628	0.062605
352	H	0.067663	0.833963	0.058236
353	H	0.034089	0.813174	0.097961
354	H	0.030006	0.838198	0.053675
355	C	0.422516	0.71164	0.00882
356	H	0.408639	0.718394	0.033808
357	H	0.41611	0.684373	0.016159
358	C	0.077583	0.79376	0.335834
359	H	0.086447	0.821077	0.325505
360	H	0.086102	0.782207	0.309445
361	C	0.188076	0.815131	0.37254
362	N	0.20423	0.851002	0.368045
363	C	0.185203	0.868104	0.367442
364	N	0.149317	0.848439	0.371505
365	C	0.132432	0.812515	0.37576
366	N	0.152148	0.796152	0.376333
367	N	0.200868	0.90528	0.361881
368	H	0.189913	0.909398	0.333756
369	N	0.094949	0.792994	0.378211
370	H	0.0867	0.766966	0.386076
371	N	0.207777	0.797353	0.37279
372	H	0.234268	0.815511	0.377389
373	C	0.312977	0.679381	0.29084
374	N	0.300838	0.643835	0.290069
375	C	0.323648	0.631017	0.290346
376	N	0.359158	0.654422	0.292028
377	C	0.371968	0.690025	0.292837
378	N	0.34859	0.702183	0.292393
379	N	0.310172	0.593937	0.292658
380	H	0.330737	0.589107	0.287139
381	N	0.408913	0.713325	0.297222
382	H	0.414586	0.738981	0.291524
383	N	0.289393	0.692855	0.293179
384	H	0.263906	0.672627	0.287201
385	C	0.223181	0.756974	0.667923
386	C	0.253177	0.76813	0.640311
387	C	0.273788	0.751783	0.642269
388	C	0.265402	0.723485	0.338545
389	C	0.234971	0.71126	0.366849
390	H	0.295499	0.761129	0.621776
391	H	0.260828	0.788858	0.618566
392	C	0.213667	0.728075	0.364808
393	C	0.226526	0.681022	0.397931
394	H	0.248523	0.688807	0.421184
395	H	0.222629	0.657949	0.378857
396	H	0.202799	0.67212	0.418084
397	C	0.181699	0.715205	0.394242
398	H	0.166849	0.729061	0.390485
399	H	0.189866	0.718107	0.429083
400	H	0.16303	0.687271	0.387185
401	C	0.290157	0.708825	0.337349
402	H	0.284543	0.689076	0.36321
403	H	0.316991	0.730832	0.344069
404	C	0.203789	0.777274	0.664376
405	H	0.175834	0.758465	0.657267
406	H	0.213437	0.796059	0.636461
407	C	0.253017	0.965284	0.688688
408	C	0.264726	0.981913	0.646947
409	C	0.277235	0.51817	0.641606
410	C	0.278835	0.53968	0.344429
411	C	0.265707	0.523226	0.386942
412	H	0.285195	0.528484	0.610395
413	H	0.264274	0.967676	0.619525
414	C	0.25306	0.98589	0.392543
415	C	0.264866	0.544493	0.425796
416	H	0.273634	0.57222	0.418873
417	H	0.281955	0.544273	0.452289
418	H	0.237676	0.532909	0.438147
419	C	0.240194	0.967304	0.436512
420	H	0.256705	0.956204	0.446888
421	H	0.212726	0.945838	0.433525
422	H	0.240716	0.983923	0.463854
423	C	0.294293	0.578836	0.33702
424	H	0.315098	0.592693	0.362064
425	H	0.272891	0.58466	0.343117
426	C	0.240207	0.926253	0.690892
427	H	0.252879	0.921077	0.71905
428	H	0.248048	0.917119	0.661243
429	C	0.037972	0.774821	0.673783
430	C	0.018462	0.743758	0.648133
431	C	0.481437	0.724322	0.649858
432	C	0.462131	0.734816	0.344242
433	C	0.481047	0.766001	0.371132
434	H	0.468543	0.702042	0.630384
435	H	0.031046	0.734768	0.627507
436	C	0.019223	0.786346	0.368901
437	C	0.459888	0.776362	0.400685
438	H	0.444758	0.755071	0.424524
439	H	0.441549	0.780796	0.380532
440	H	0.475289	0.800349	0.420198
441	C	0.039006	0.819628	0.39594
442	H	0.067663	0.833963	0.391568
443	H	0.034089	0.813174	0.431294
444	H	0.030006	0.838198	0.387009
445	C	0.422516	0.71164	0.342155
446	H	0.408639	0.718394	0.367139
447	H	0.41611	0.684373	0.349494
448	C	0.077583	0.79376	0.669168
449	H	0.086447	0.821077	0.658838
450	H	0.086102	0.782207	0.642778
451	C	0.188076	0.815131	0.705874
452	N	0.20423	0.851002	0.701378
453	C	0.185203	0.868104	0.700776
454	N	0.149317	0.848439	0.704835
455	C	0.132432	0.812515	0.709094
456	N	0.152148	0.796152	0.709667
457	N	0.200868	0.90528	0.695215
458	H	0.189913	0.909398	0.66709
459	N	0.094949	0.792994	0.711545
460	H	0.0867	0.766966	0.71941
461	N	0.207777	0.797353	0.706124
462	H	0.234268	0.815511	0.710722
463	C	0.312977	0.679381	0.624174
464	N	0.300838	0.643835	0.623401
465	C	0.323648	0.631017	0.623678
466	N	0.359158	0.654422	0.625359
467	C	0.371968	0.690025	0.626168
468	N	0.34859	0.702183	0.625726
469	N	0.310172	0.593937	0.625992
470	H	0.330737	0.589107	0.620471
471	N	0.408913	0.713325	0.630554
472	H	0.414586	0.738981	0.624856
473	N	0.289393	0.692855	0.626511
474	H	0.263906	0.672627	0.620534
475	C	0.223181	0.756974	0.001255
476	C	0.253177	0.76813	0.973641
477	C	0.273788	0.751783	0.975602
478	C	0.265402	0.723485	0.671875
479	C	0.234971	0.71126	0.700183
480	H	0.295499	0.761129	0.95511
481	H	0.260828	0.788858	0.951896
482	C	0.213667	0.728075	0.698142
483	C	0.226526	0.681022	0.731261
484	H	0.248523	0.688807	0.754518
485	H	0.222629	0.657949	0.712191
486	H	0.202799	0.67212	0.751414
487	C	0.181699	0.715205	0.727575
488	H	0.166849	0.729061	0.723819
489	H	0.189866	0.718107	0.762413
490	H	0.16303	0.687271	0.720516
491	C	0.290157	0.708825	0.670683
492	H	0.284543	0.689076	0.69654
493	H	0.316991	0.730832	0.677403
494	C	0.203789	0.777274	0.99771
495	H	0.175834	0.758465	0.9906
496	H	0.213437	0.796059	0.969795
497	C	0.253017	0.965284	0.022022
498	C	0.264726	0.981913	0.980281
499	C	0.277235	0.51817	0.97494
500	C	0.278835	0.53968	0.677763
501	C	0.265707	0.523226	0.720276
502	H	0.285195	0.528484	0.943728
503	H	0.264274	0.967676	0.952859
504	C	0.25306	0.98589	0.725877
505	C	0.264866	0.544493	0.75913
506	H	0.273634	0.57222	0.752207
507	H	0.281955	0.544273	0.785623
508	H	0.237676	0.532909	0.77148
509	C	0.240194	0.967304	0.769845
510	H	0.256705	0.956204	0.780221
511	H	0.212726	0.945838	0.766858
512	H	0.240716	0.983923	0.797187
513	C	0.294293	0.578836	0.670353
514	H	0.315098	0.592693	0.695395
515	H	0.272891	0.58466	0.676451
516	C	0.240207	0.926253	0.024227
517	H	0.252879	0.921077	0.052385
518	H	0.248048	0.917119	0.994576
519	C	0.037972	0.774821	0.007119
520	C	0.018462	0.743758	0.981466
521	C	0.481437	0.724322	0.983188
522	C	0.462131	0.734816	0.677576
523	C	0.481047	0.766001	0.704465
524	H	0.468543	0.702042	0.963718
525	H	0.031046	0.734768	0.960841
526	C	0.019223	0.786346	0.702234
527	C	0.459888	0.776362	0.734019
528	H	0.444758	0.755071	0.757858
529	H	0.441549	0.780796	0.713866
530	H	0.475289	0.800349	0.753532
531	C	0.039006	0.819628	0.72927
532	H	0.067663	0.833963	0.724901
533	H	0.034089	0.813174	0.764627
534	H	0.030006	0.838198	0.720342
535	C	0.422516	0.71164	0.675485
536	H	0.408639	0.718394	0.700473
537	H	0.41611	0.684373	0.682824
538	C	0.077583	0.79376	0.002501
539	H	0.086447	0.821077	0.992172
540	H	0.086102	0.782207	0.976112
541	C	0.688076	0.315131	0.039206
542	N	0.70423	0.351002	0.034713
543	C	0.685203	0.368105	0.034111
544	N	0.649317	0.34844	0.03817
545	C	0.632432	0.312516	0.042427
546	N	0.652148	0.296152	0.042999
547	N	0.700868	0.405281	0.028548
548	H	0.689912	0.409395	0.000423
549	N	0.594949	0.292995	0.044877
550	H	0.5867	0.266966	0.052744
551	N	0.707774	0.297351	0.039457
552	H	0.734267	0.315511	0.044056
553	C	0.812976	0.17938	0.957507
554	N	0.800838	0.143834	0.956735
555	C	0.823648	0.131017	0.957011
556	N	0.859158	0.154422	0.958693
557	C	0.871968	0.190024	0.959502
558	N	0.848589	0.202183	0.959059
559	N	0.810172	0.093935	0.959326
560	H	0.830736	0.089107	0.953805
561	N	0.908914	0.213326	0.963888
562	H	0.914587	0.238982	0.95819
563	N	0.789392	0.192856	0.959845
564	H	0.763907	0.172626	0.953868
565	C	0.723181	0.256974	0.334589
566	C	0.753176	0.268128	0.306976
567	C	0.773787	0.251783	0.308935
568	C	0.765403	0.223486	0.005211
569	C	0.734971	0.211259	0.033516
570	H	0.7955	0.261129	0.288444
571	H	0.760827	0.288859	0.285231
572	C	0.713668	0.228077	0.031475
573	C	0.726526	0.181022	0.064597
574	H	0.748523	0.188806	0.087852
575	H	0.722627	0.157949	0.045526
576	H	0.7028	0.172119	0.08475
577	C	0.681699	0.215205	0.060909
578	H	0.666851	0.229063	0.057153
579	H	0.689865	0.218107	0.095748
580	H	0.663029	0.187271	0.053851
581	C	0.790157	0.208824	0.004017
582	H	0.784542	0.189076	0.029875
583	H	0.816991	0.230831	0.010736
584	C	0.703788	0.277275	0.331044
585	H	0.675835	0.258466	0.323934
586	H	0.713436	0.296059	0.303129
587	C	0.753016	0.465282	0.355354
588	C	0.764727	0.481914	0.313614
589	C	0.777236	0.018169	0.308272
590	C	0.778836	0.03968	0.011096
591	C	0.765705	0.023225	0.053608
592	H	0.785194	0.028483	0.277063
593	H	0.764275	0.467677	0.286193
594	C	0.753059	0.485888	0.059211
595	C	0.764866	0.044493	0.092462
596	H	0.773634	0.072221	0.085539
597	H	0.781954	0.044273	0.118955
598	H	0.737676	0.03291	0.104815
599	C	0.740195	0.467305	0.103178
600	H	0.756704	0.456205	0.113556
601	H	0.712726	0.445838	0.100192
602	H	0.740715	0.483921	0.130521
603	C	0.794294	0.078836	0.003686
604	H	0.815098	0.092693	0.02873
605	H	0.772892	0.084659	0.009783
606	C	0.740207	0.426253	0.357559
607	H	0.752879	0.421078	0.385717
608	H	0.748048	0.41712	0.32791
609	C	0.537972	0.274821	0.340453
610	C	0.518462	0.243758	0.3148
611	C	0.981436	0.224321	0.316523
612	C	0.96213	0.234815	0.010909
613	C	0.981047	0.266002	0.037798
614	H	0.968544	0.202041	0.297052
615	H	0.531046	0.234767	0.294174
616	C	0.519223	0.286347	0.035567
617	C	0.959888	0.276363	0.067352
618	H	0.944758	0.255071	0.091191
619	H	0.941548	0.280797	0.047199
620	H	0.975288	0.30035	0.086866
621	C	0.539006	0.319629	0.062605
622	H	0.567663	0.333964	0.058236
623	H	0.534088	0.313172	0.097961
624	H	0.530006	0.338198	0.053675
625	C	0.922516	0.211641	0.00882
626	H	0.908639	0.218393	0.033808
627	H	0.91611	0.184372	0.016159
628	C	0.577583	0.29376	0.335834
629	H	0.586447	0.321077	0.325505
630	H	0.586103	0.282208	0.309445
631	C	0.688076	0.315131	0.37254
632	N	0.70423	0.351002	0.368045
633	C	0.685203	0.368105	0.367442
634	N	0.649317	0.34844	0.371505
635	C	0.632432	0.312516	0.37576
636	N	0.652148	0.296152	0.376333
637	N	0.700868	0.405281	0.361881
638	H	0.689912	0.409395	0.333756
639	N	0.594949	0.292995	0.378211
640	H	0.5867	0.266966	0.386076
641	N	0.707774	0.297351	0.37279
642	H	0.734267	0.315511	0.377389
643	C	0.812976	0.17938	0.29084
644	N	0.800838	0.143834	0.290069
645	C	0.823648	0.131017	0.290346
646	N	0.859158	0.154422	0.292028
647	C	0.871968	0.190024	0.292837
648	N	0.848589	0.202183	0.292393
649	N	0.810172	0.093935	0.292658
650	H	0.830736	0.089107	0.287139
651	N	0.908914	0.213326	0.297222
652	H	0.914587	0.238982	0.291525
653	N	0.789392	0.192856	0.293179
654	H	0.763907	0.172626	0.287201
655	C	0.723181	0.256974	0.667923
656	C	0.753176	0.268128	0.640311
657	C	0.773787	0.251783	0.642269
658	C	0.765403	0.223486	0.338545
659	C	0.734971	0.211259	0.366849
660	H	0.7955	0.261129	0.621776
661	H	0.760827	0.288859	0.618563
662	C	0.713668	0.228077	0.364808
663	C	0.726526	0.181022	0.397931
664	H	0.748523	0.188806	0.421184
665	H	0.722627	0.157949	0.378857
666	H	0.7028	0.172119	0.418084
667	C	0.681699	0.215205	0.394242
668	H	0.666851	0.229063	0.390485
669	H	0.689865	0.218107	0.429083
670	H	0.663029	0.187271	0.387185
671	C	0.790157	0.208824	0.337349
672	H	0.784542	0.189076	0.36321
673	H	0.816991	0.230831	0.344069
674	C	0.703788	0.277275	0.664376
675	H	0.675835	0.258466	0.657267
676	H	0.713436	0.296059	0.636461
677	C	0.753016	0.465282	0.688688
678	C	0.764727	0.481914	0.646947
679	C	0.777236	0.018169	0.641606
680	C	0.778836	0.03968	0.344429
681	C	0.765705	0.023225	0.386942
682	H	0.785194	0.028483	0.610395
683	H	0.764275	0.467677	0.619525
684	C	0.753059	0.485888	0.392543
685	C	0.764866	0.044493	0.425796
686	H	0.773634	0.072221	0.418873
687	H	0.781954	0.044273	0.452289
688	H	0.737676	0.03291	0.438147
689	C	0.740195	0.467305	0.436512
690	H	0.756704	0.456205	0.446888
691	H	0.712726	0.445838	0.433525
692	H	0.740715	0.483921	0.463854
693	C	0.794294	0.078836	0.33702
694	H	0.815098	0.092693	0.362064
695	H	0.772892	0.084659	0.343117
696	C	0.740207	0.426253	0.690892
697	H	0.752879	0.421078	0.71905
698	H	0.748048	0.41712	0.661243
699	C	0.537972	0.274821	0.673783
700	C	0.518462	0.243758	0.648133
701	C	0.981436	0.224321	0.649858
702	C	0.96213	0.234815	0.344242
703	C	0.981047	0.266002	0.371132
704	H	0.968544	0.202041	0.630384
705	H	0.531046	0.234767	0.627507
706	C	0.519223	0.286347	0.368901
707	C	0.959888	0.276363	0.400685
708	H	0.944758	0.255071	0.424524
709	H	0.941548	0.280797	0.380532
710	H	0.975288	0.30035	0.420198
711	C	0.539006	0.319629	0.39594
712	H	0.567663	0.333964	0.391568
713	H	0.534088	0.313172	0.431294
714	H	0.530006	0.338198	0.387009
715	C	0.922516	0.211641	0.342155
716	H	0.908639	0.218393	0.367139
717	H	0.91611	0.184372	0.349494
718	C	0.577583	0.29376	0.669168
719	H	0.586447	0.321077	0.658838
720	H	0.586103	0.282208	0.642778
721	C	0.688076	0.315131	0.705871
722	N	0.70423	0.351002	0.701378
723	C	0.685203	0.368105	0.700776
724	N	0.649317	0.34844	0.704835
725	C	0.632432	0.312516	0.709094
726	N	0.652148	0.296152	0.709667
727	N	0.700868	0.405281	0.695215
728	H	0.689912	0.409395	0.66709
729	N	0.594949	0.292995	0.711545
730	H	0.5867	0.266966	0.71941
731	N	0.707774	0.297351	0.706124
732	H	0.734267	0.315511	0.710722
733	C	0.812976	0.17938	0.624174
734	N	0.800838	0.143834	0.623401
735	C	0.823648	0.131017	0.623681
736	N	0.859158	0.154422	0.625363
737	C	0.871968	0.190024	0.626172
738	N	0.848589	0.202183	0.625726
739	N	0.810172	0.093935	0.625992
740	H	0.830736	0.089107	0.620471
741	N	0.908914	0.213326	0.630554
742	H	0.914587	0.238982	0.624856
743	N	0.789392	0.192856	0.626511
744	H	0.763907	0.172626	0.620534
745	C	0.723181	0.256974	0.001255
746	C	0.753176	0.268128	0.973641
747	C	0.773787	0.251783	0.975602
748	C	0.765403	0.223486	0.671875
749	C	0.734971	0.211259	0.700183
750	H	0.7955	0.261129	0.95511
751	H	0.760827	0.288859	0.951896
752	C	0.713668	0.228077	0.698142
753	C	0.726526	0.181022	0.731265
754	H	0.748523	0.188806	0.754518
755	H	0.722627	0.157949	0.712191
756	H	0.7028	0.172119	0.751417
757	C	0.681699	0.215205	0.727575
758	H	0.666851	0.229063	0.723819
759	H	0.689865	0.218107	0.762413
760	H	0.663029	0.187271	0.720519
761	C	0.790157	0.208824	0.670683
762	H	0.784542	0.189076	0.69654
763	H	0.816991	0.230831	0.677403
764	C	0.703788	0.277275	0.99771
765	H	0.675835	0.258466	0.9906
766	H	0.713436	0.296059	0.969795
767	C	0.753016	0.465282	0.022022
768	C	0.764727	0.481914	0.980281
769	C	0.777236	0.018169	0.97494
770	C	0.778836	0.03968	0.677763
771	C	0.765705	0.023225	0.720276
772	H	0.785194	0.028483	0.943728
773	H	0.764275	0.467677	0.952859
774	C	0.753059	0.485888	0.725877
775	C	0.764866	0.044493	0.75913
776	H	0.773634	0.072221	0.752207
777	H	0.781954	0.044273	0.785623
778	H	0.737676	0.03291	0.77148
779	C	0.740195	0.467305	0.769845
780	H	0.756704	0.456205	0.780221
781	H	0.712726	0.445838	0.766858
782	H	0.740715	0.483921	0.797187
783	C	0.794294	0.078836	0.670353
784	H	0.815098	0.092693	0.695395
785	H	0.772892	0.084659	0.676451
786	C	0.740207	0.426253	0.024226
787	H	0.752879	0.421078	0.052385
788	H	0.748048	0.41712	0.994576
789	C	0.537972	0.274821	0.007119
790	C	0.518462	0.243758	0.981466
791	C	0.981436	0.224321	0.983188
792	C	0.96213	0.234815	0.677576
793	C	0.981047	0.266002	0.704465
794	H	0.968544	0.202041	0.963718
795	H	0.531046	0.234767	0.960841
796	C	0.519223	0.286347	0.702234
797	C	0.959888	0.276363	0.734019
798	H	0.944758	0.255071	0.757858
799	H	0.941548	0.280797	0.713866
800	H	0.975288	0.30035	0.753532
801	C	0.539006	0.319629	0.72927
802	H	0.567663	0.333964	0.724901
803	H	0.534088	0.313172	0.764627
804	H	0.530006	0.338198	0.720342
805	C	0.922516	0.211641	0.675485
806	H	0.908639	0.218393	0.700473
807	H	0.91611	0.184372	0.682824
808	C	0.577583	0.29376	0.002501
809	H	0.586447	0.321077	0.992172
810	H	0.586103	0.282208	0.976112
811	C	0.688076	0.815131	0.039206
812	N	0.70423	0.851002	0.034713
813	C	0.685203	0.868104	0.034111
814	N	0.649316	0.848439	0.03817
815	C	0.632433	0.812515	0.042427
816	N	0.652148	0.796152	0.042999
817	N	0.700868	0.90528	0.028548
818	H	0.689913	0.909398	0.000423
819	N	0.594949	0.792994	0.044877
820	H	0.5867	0.766966	0.052744
821	N	0.707778	0.797353	0.039457
822	H	0.734269	0.815511	0.044056
823	C	0.812976	0.679381	0.957507
824	N	0.800838	0.643835	0.956735
825	C	0.823648	0.631017	0.957011
826	N	0.859158	0.654422	0.958693
827	C	0.871968	0.690025	0.959502
828	N	0.848589	0.702183	0.959059
829	N	0.810173	0.593937	0.959326
830	H	0.830736	0.589107	0.953805
831	N	0.908913	0.713325	0.963888
832	H	0.914587	0.738981	0.95819
833	N	0.789391	0.692855	0.959845
834	H	0.763907	0.672627	0.953868
835	C	0.723181	0.756974	0.334589
836	C	0.753177	0.76813	0.306976
837	C	0.773787	0.751783	0.308935
838	C	0.765402	0.723485	0.005211
839	C	0.734972	0.71126	0.033516
840	H	0.795499	0.761129	0.288444
841	H	0.760829	0.788858	0.285232
842	C	0.713667	0.728075	0.031474
843	C	0.726526	0.681022	0.064597
844	H	0.748524	0.688807	0.087852
845	H	0.72263	0.657949	0.045525
846	H	0.7028	0.67212	0.084749
847	C	0.681699	0.715205	0.060909
848	H	0.66685	0.729061	0.057153
849	H	0.689867	0.718107	0.095748
850	H	0.663029	0.687271	0.053851
851	C	0.790157	0.708825	0.004017
852	H	0.784543	0.689076	0.029875
853	H	0.816991	0.730832	0.010736
854	C	0.70379	0.777274	0.331044
855	H	0.675834	0.758465	0.323934
856	H	0.713438	0.796059	0.30313
857	C	0.753017	0.965284	0.355354
858	C	0.764727	0.981913	0.313614
859	C	0.777236	0.51817	0.308272
860	C	0.778836	0.53968	0.011096
861	C	0.765706	0.523226	0.053608
862	H	0.785195	0.528484	0.277063
863	H	0.764275	0.967676	0.286193
864	C	0.75306	0.98589	0.059211
865	C	0.764867	0.544493	0.092462
866	H	0.773633	0.57222	0.085539
867	H	0.781954	0.544273	0.118955
868	H	0.737675	0.532909	0.104814
869	C	0.740194	0.967304	0.103178
870	H	0.756704	0.956204	0.113556
871	H	0.712726	0.945838	0.100192
872	H	0.740716	0.983923	0.130521
873	C	0.794294	0.578836	0.003686
874	H	0.815098	0.592693	0.02873
875	H	0.772892	0.58466	0.009783
876	C	0.740207	0.926253	0.357559
877	H	0.752879	0.921077	0.385717
878	H	0.748048	0.917119	0.327911
879	C	0.537972	0.774821	0.340453
880	C	0.518463	0.743758	0.314801
881	C	0.981436	0.724322	0.316523
882	C	0.96213	0.734816	0.010909
883	C	0.981047	0.766001	0.037797
884	H	0.968544	0.702042	0.297052
885	H	0.531046	0.734768	0.294174
886	C	0.519222	0.786346	0.035567
887	C	0.959888	0.776362	0.067351
888	H	0.944758	0.755071	0.091191
889	H	0.941548	0.780796	0.047198
890	H	0.975288	0.800349	0.086865
891	C	0.539007	0.819628	0.062605
892	H	0.567662	0.833963	0.058236
893	H	0.534089	0.813174	0.097961
894	H	0.530005	0.838198	0.053675
895	C	0.922515	0.71164	0.00882
896	H	0.908639	0.718394	0.033808
897	H	0.91611	0.684373	0.016159
898	C	0.577584	0.79376	0.335834
899	H	0.586447	0.821077	0.325505
900	H	0.586102	0.782207	0.309445
901	C	0.688076	0.815131	0.37254
902	N	0.70423	0.851002	0.368045
903	C	0.685203	0.868104	0.367442
904	N	0.649316	0.848439	0.371505
905	C	0.632433	0.812515	0.37576
906	N	0.652148	0.796152	0.376333
907	N	0.700868	0.90528	0.361881
908	H	0.689913	0.909398	0.333756
909	N	0.594949	0.792994	0.378211
910	H	0.5867	0.766966	0.386076
911	N	0.707778	0.797353	0.37279
912	H	0.734269	0.815511	0.377389
913	C	0.812976	0.679381	0.29084
914	N	0.800838	0.643835	0.290069
915	C	0.823648	0.631017	0.290346
916	N	0.859158	0.654422	0.292028
917	C	0.871968	0.690025	0.292837
918	N	0.848589	0.702183	0.292393
919	N	0.810173	0.593937	0.292658
920	H	0.830736	0.589107	0.287139
921	N	0.908913	0.713325	0.297222
922	H	0.914587	0.738981	0.291524
923	N	0.789391	0.692855	0.293179
924	H	0.763907	0.672627	0.287201
925	C	0.723181	0.756974	0.667923
926	C	0.753177	0.76813	0.640311
927	C	0.773787	0.751783	0.642269
928	C	0.765402	0.723485	0.338545
929	C	0.734972	0.71126	0.366849
930	H	0.795499	0.761129	0.621776
931	H	0.760829	0.788858	0.618566
932	C	0.713667	0.728075	0.364808
933	C	0.726526	0.681022	0.397931
934	H	0.748524	0.688807	0.421184
935	H	0.72263	0.657949	0.378857
936	H	0.7028	0.67212	0.418084
937	C	0.681699	0.715205	0.394242
938	H	0.66685	0.729061	0.390485
939	H	0.689867	0.718107	0.429083
940	H	0.663029	0.687271	0.387185
941	C	0.790157	0.708825	0.337349
942	H	0.784543	0.689076	0.36321
943	H	0.816991	0.730832	0.344069
944	C	0.70379	0.777274	0.664376
945	H	0.675834	0.758465	0.657267
946	H	0.713438	0.796059	0.636461
947	C	0.753017	0.965284	0.688688
948	C	0.764727	0.981913	0.646947
949	C	0.777236	0.51817	0.641606
950	C	0.778836	0.53968	0.344429
951	C	0.765706	0.523226	0.386942
952	H	0.785195	0.528484	0.610395
953	H	0.764275	0.967676	0.619525
954	C	0.75306	0.98589	0.392543
955	C	0.764867	0.544493	0.425796
956	H	0.773633	0.57222	0.418873
957	H	0.781954	0.544273	0.452289
958	H	0.737675	0.532909	0.438147
959	C	0.740194	0.967304	0.436512
960	H	0.756704	0.956204	0.446888
961	H	0.712726	0.945838	0.433525
962	H	0.740716	0.983923	0.463854
963	C	0.794294	0.578836	0.33702
964	H	0.815098	0.592693	0.362064
965	H	0.772892	0.58466	0.343117
966	C	0.740207	0.926253	0.690892
967	H	0.752879	0.921077	0.71905
968	H	0.748048	0.917119	0.661243
969	C	0.537972	0.774821	0.673783
970	C	0.518463	0.743758	0.648133
971	C	0.981436	0.724322	0.649858
972	C	0.96213	0.734816	0.344242
973	C	0.981047	0.766001	0.371132
974	H	0.968544	0.702042	0.630384
975	H	0.531046	0.734768	0.627507
976	C	0.519222	0.786346	0.368901
977	C	0.959888	0.776362	0.400685
978	H	0.944758	0.755071	0.424524
979	H	0.941548	0.780796	0.380532
980	H	0.975288	0.800349	0.420198
981	C	0.539007	0.819628	0.39594
982	H	0.567662	0.833963	0.391568
983	H	0.534089	0.813174	0.431294
984	H	0.530005	0.838198	0.387009
985	C	0.922515	0.71164	0.342155
986	H	0.908639	0.718394	0.367139
987	H	0.91611	0.684373	0.349494
988	C	0.577584	0.79376	0.669168
989	H	0.586447	0.821077	0.658838
990	H	0.586102	0.782207	0.642778
991	C	0.688076	0.815131	0.705874
992	N	0.70423	0.851002	0.701378
993	C	0.685203	0.868104	0.700776
994	N	0.649316	0.848439	0.704835
995	C	0.632433	0.812515	0.709094
996	N	0.652148	0.796152	0.709667
997	N	0.700868	0.90528	0.695215
998	H	0.689913	0.909398	0.66709
999	N	0.594949	0.792994	0.711545
1000	H	0.5867	0.766966	0.71941
1001	N	0.707778	0.797353	0.706124
1002	H	0.734269	0.815511	0.710722
1003	C	0.812976	0.679381	0.624174
1004	N	0.800838	0.643835	0.623401
1005	C	0.823648	0.631017	0.623678
1006	N	0.859158	0.654422	0.625359
1007	C	0.871968	0.690025	0.626168
1008	N	0.848589	0.702183	0.625726
1009	N	0.810173	0.593937	0.625992
1010	H	0.830736	0.589107	0.620471
1011	N	0.908913	0.713325	0.630554
1012	H	0.914587	0.738981	0.624856
1013	N	0.789391	0.692855	0.626511
1014	H	0.763907	0.672627	0.620534
1015	C	0.723181	0.756974	0.001255
1016	C	0.753177	0.76813	0.973641
1017	C	0.773787	0.751783	0.975602
1018	C	0.765402	0.723485	0.671875
1019	C	0.734972	0.71126	0.700183
1020	H	0.795499	0.761129	0.95511
1021	H	0.760829	0.788858	0.951896
1022	C	0.713667	0.728075	0.698142
1023	C	0.726526	0.681022	0.731261
1024	H	0.748524	0.688807	0.754518
1025	H	0.72263	0.657949	0.712191
1026	H	0.7028	0.67212	0.751414
1027	C	0.681699	0.715205	0.727575
1028	H	0.66685	0.729061	0.723819
1029	H	0.689867	0.718107	0.762413
1030	H	0.663029	0.687271	0.720516
1031	C	0.790157	0.708825	0.670683
1032	H	0.784543	0.689076	0.69654
1033	H	0.816991	0.730832	0.677403
1034	C	0.70379	0.777274	0.99771
1035	H	0.675834	0.758465	0.9906
1036	H	0.713438	0.796059	0.969795
1037	C	0.753017	0.965284	0.022022
1038	C	0.764727	0.981913	0.980281
1039	C	0.777236	0.51817	0.97494
1040	C	0.778836	0.53968	0.677763
1041	C	0.765706	0.523226	0.720276
1042	H	0.785195	0.528484	0.943728
1043	H	0.764275	0.967676	0.952859
1044	C	0.75306	0.98589	0.725877
1045	C	0.764867	0.544493	0.75913
1046	H	0.773633	0.57222	0.752207
1047	H	0.781954	0.544273	0.785623
1048	H	0.737675	0.532909	0.77148
1049	C	0.740194	0.967304	0.769845
1050	H	0.756704	0.956204	0.780221
1051	H	0.712726	0.945838	0.766858
1052	H	0.740716	0.983923	0.797187
1053	C	0.794294	0.578836	0.670353
1054	H	0.815098	0.592693	0.695395
1055	H	0.772892	0.58466	0.676451
1056	C	0.740207	0.926253	0.024227
1057	H	0.752879	0.921077	0.052385
1058	H	0.748048	0.917119	0.994576
1059	C	0.537972	0.774821	0.007119
1060	C	0.518463	0.743758	0.981466
1061	C	0.981436	0.724322	0.983188
1062	C	0.96213	0.734816	0.677576
1063	C	0.981047	0.766001	0.704465
1064	H	0.968544	0.702042	0.963718
1065	H	0.531046	0.734768	0.960841
1066	C	0.519222	0.786346	0.702234
1067	C	0.959888	0.776362	0.734019
1068	H	0.944758	0.755071	0.757858
1069	H	0.941548	0.780796	0.713866
1070	H	0.975288	0.800349	0.753532
1071	C	0.539007	0.819628	0.72927
1072	H	0.567662	0.833963	0.724901
1073	H	0.534089	0.813174	0.764627
1074	H	0.530005	0.838198	0.720342
1075	C	0.922515	0.71164	0.675485
1076	H	0.908639	0.718394	0.700473
1077	H	0.91611	0.684373	0.682824
1078	C	0.577584	0.79376	0.002501
1079	H	0.586447	0.821077	0.992172
1080	H	0.586102	0.782207	0.976112
