data_C396H216N144O108_2018-02-15_10:32:46
#******************************************
#
# CIF file created by Zeo++
# Zeo++ is an open source package to
# analyze microporous materials
#
#*******************************************

_cell_length_a		43.596   
_cell_length_b		43.596   
_cell_length_c		30.0996   
_cell_angle_alpha		90   
_cell_angle_beta		90   
_cell_angle_gamma		120   

_symmetry_space_group_name_H-M		'P1'
_symmetry_Int_Tables_number		1
_symmetry_cell_setting		Monoclinic

loop_
_symmetry_equiv_pos_as_xyz
'+x,+y,+z'

loop_
_atom_site_label
_atom_site_type_symbol
_atom_site_fract_x
_atom_site_fract_y
_atom_site_fract_z
1	C	0.176073	0.368961	0.956495
2	C	0.139565	0.34319	0.955967
3	C	0.126889	0.306278	0.956366
4	C	0.152672	0.295551	0.955927
5	C	0.189583	0.319786	0.289765
6	C	0.20032	0.3563	0.955967
7	H	0.144078	0.269179	0.958485
8	H	0.226681	0.374067	0.958688
9	H	0.121785	0.351779	0.958555
10	C	0.187119	0.405403	0.96299
11	C	0.214983	0.308744	0.296253
12	C	0.090443	0.280867	0.962781
13	O	0.24898	0.33416	0.971293
14	O	0.161701	0.413982	0.971363
15	O	0.081854	0.246861	0.971107
16	C	0.319211	0.127764	0.045392
17	C	0.355651	0.153733	0.045631
18	C	0.368131	0.190624	0.045397
19	C	0.342155	0.201087	0.045607
20	C	0.305262	0.176679	0.37876
21	C	0.294797	0.140239	0.045642
22	H	0.350626	0.227432	0.043075
23	H	0.268449	0.12237	0.043135
24	H	0.373524	0.145263	0.043077
25	C	0.308372	0.091218	0.040366
26	C	0.279558	0.187517	0.37369
27	C	0.404669	0.216329	0.040292
28	O	0.245542	0.162049	0.032261
29	O	0.333838	0.082668	0.032274
30	O	0.413208	0.250339	0.032168
31	C	0.266731	0.235305	0.025712
32	N	0.238232	0.214706	0.332799
33	C	0.218216	0.22591	0.311675
34	C	0.227392	0.261718	0.315422
35	N	0.255558	0.282181	0.008655
36	C	0.275724	0.271356	0.030708
37	H	0.19719	0.208402	0.292851
38	C	0.30323	0.295607	0.057175
39	O	0.311608	0.326885	0.055559
40	H	0.305363	0.28742	0.087124
41	N	0.207593	0.274349	0.296156
42	H	0.185964	0.256885	0.281559
43	N	0.286664	0.221794	0.042612
44	H	0.308648	0.238603	0.056825
45	C	0.260596	0.030588	0.025786
46	N	0.281176	0.022688	0.332832
47	C	0.269958	0.491463	0.311707
48	C	0.234142	0.464844	0.315449
49	N	0.213693	0.472541	0.00872
50	C	0.224551	0.003526	0.030776
51	H	0.287451	0.487954	0.29284
52	C	0.200241	0.00664	0.057206
53	O	0.168846	0.984099	0.055778
54	H	0.208512	0.017401	0.086999
55	N	0.221512	0.432412	0.296193
56	H	0.238971	0.428243	0.281586
57	N	0.274096	0.064043	0.042635
58	H	0.257278	0.069219	0.056817
59	C	0.465281	0.229162	0.025617
60	N	0.473171	0.25765	0.332686
61	C	0.004391	0.27766	0.311554
62	C	0.031011	0.268463	0.315272
63	N	0.023325	0.240318	0.008538
64	C	0.492346	0.220186	0.030604
65	H	0.007894	0.298658	0.292682
66	C	0.489253	0.192778	0.057049
67	O	0.511789	0.183918	0.055598
68	H	0.478521	0.190311	0.086856
69	N	0.06344	0.288259	0.296003
70	H	0.067616	0.309899	0.281421
71	N	0.431845	0.209231	0.042537
72	H	0.426679	0.187247	0.056742
73	C	0.176073	0.368961	0.28983
74	C	0.139565	0.34319	0.289302
75	C	0.126889	0.306278	0.289701
76	C	0.152672	0.295551	0.289262
77	C	0.189583	0.319786	0.623099
78	C	0.20032	0.3563	0.2893
79	H	0.144078	0.269179	0.291818
80	H	0.226681	0.374067	0.292021
81	H	0.121785	0.351779	0.291888
82	C	0.187119	0.405403	0.296323
83	C	0.214983	0.308744	0.629587
84	C	0.090443	0.280867	0.296115
85	O	0.24898	0.33416	0.304627
86	O	0.161701	0.413982	0.304696
87	O	0.081854	0.246861	0.304439
88	C	0.319211	0.127764	0.378726
89	C	0.355651	0.153733	0.378962
90	C	0.368131	0.190624	0.37873
91	C	0.342155	0.201087	0.378939
92	C	0.305262	0.176679	0.712093
93	C	0.294797	0.140239	0.378975
94	H	0.350626	0.227432	0.376407
95	H	0.268449	0.12237	0.376467
96	H	0.373524	0.145263	0.376411
97	C	0.308372	0.091218	0.3737
98	C	0.279558	0.187517	0.707023
99	C	0.404669	0.216329	0.373627
100	O	0.245542	0.162049	0.365593
101	O	0.333838	0.082668	0.365607
102	O	0.413208	0.250339	0.3655
103	C	0.266731	0.235305	0.359045
104	N	0.238232	0.214706	0.666132
105	C	0.218216	0.22591	0.645009
106	C	0.227392	0.261718	0.648757
107	N	0.255558	0.282181	0.341988
108	C	0.275724	0.271356	0.364042
109	H	0.19719	0.208402	0.626185
110	C	0.30323	0.295607	0.390507
111	O	0.311608	0.326885	0.388893
112	H	0.305363	0.28742	0.420458
113	N	0.207593	0.274349	0.629487
114	H	0.185964	0.256885	0.614892
115	N	0.286664	0.221794	0.375946
116	H	0.308648	0.238603	0.390158
117	C	0.260596	0.030588	0.359118
118	N	0.281176	0.022688	0.666166
119	C	0.269958	0.491463	0.645039
120	C	0.234142	0.464844	0.648783
121	N	0.213693	0.472541	0.342051
122	C	0.224551	0.003526	0.364108
123	H	0.287451	0.487954	0.626172
124	C	0.200241	0.00664	0.39054
125	O	0.168846	0.984099	0.389112
126	H	0.208512	0.017401	0.420332
127	N	0.221512	0.432412	0.629527
128	H	0.238971	0.428243	0.614919
129	N	0.274096	0.064043	0.375969
130	H	0.257278	0.069219	0.390152
131	C	0.465281	0.229162	0.358949
132	N	0.473171	0.25765	0.666019
133	C	0.004391	0.27766	0.644886
134	C	0.031011	0.268463	0.648604
135	N	0.023325	0.240318	0.341872
136	C	0.492346	0.220186	0.363935
137	H	0.007894	0.298658	0.626016
138	C	0.489253	0.192778	0.390381
139	O	0.511789	0.183918	0.388932
140	H	0.478521	0.190311	0.420189
141	N	0.06344	0.288259	0.629335
142	H	0.067616	0.309899	0.614753
143	N	0.431845	0.209231	0.375869
144	H	0.426679	0.187247	0.390075
145	C	0.176073	0.368961	0.623162
146	C	0.139565	0.34319	0.622633
147	C	0.126889	0.306278	0.623035
148	C	0.152672	0.295551	0.622597
149	C	0.189583	0.319786	0.956432
150	C	0.20032	0.3563	0.622633
151	H	0.144078	0.269179	0.625152
152	H	0.226681	0.374067	0.625354
153	H	0.121785	0.351779	0.625222
154	C	0.187119	0.405403	0.629657
155	C	0.214983	0.308744	0.962921
156	C	0.090443	0.280867	0.629447
157	O	0.24898	0.33416	0.637959
158	O	0.161701	0.413982	0.638029
159	O	0.081854	0.246861	0.637773
160	C	0.319211	0.127764	0.712057
161	C	0.355651	0.153733	0.712296
162	C	0.368131	0.190624	0.712063
163	C	0.342155	0.201087	0.712273
164	C	0.305262	0.176679	0.045427
165	C	0.294797	0.140239	0.712309
166	H	0.350626	0.227432	0.709741
167	H	0.268449	0.12237	0.709801
168	H	0.373524	0.145263	0.709744
169	C	0.308372	0.091218	0.707033
170	C	0.279558	0.187517	0.040356
171	C	0.404669	0.216329	0.706957
172	O	0.245542	0.162049	0.698927
173	O	0.333838	0.082668	0.69894
174	O	0.413208	0.250339	0.698834
175	C	0.266731	0.235305	0.692379
176	N	0.238232	0.214706	0.999467
177	C	0.218216	0.22591	0.978339
178	C	0.227392	0.261718	0.982087
179	N	0.255558	0.282181	0.675322
180	C	0.275724	0.271356	0.697372
181	H	0.19719	0.208402	0.959515
182	C	0.30323	0.295607	0.723841
183	O	0.311608	0.326885	0.722226
184	H	0.305363	0.28742	0.753791
185	N	0.207593	0.274349	0.962821
186	H	0.185964	0.256885	0.948226
187	N	0.286664	0.221794	0.709279
188	H	0.308648	0.238603	0.723492
189	C	0.260596	0.030588	0.692452
190	N	0.281176	0.022688	0.9995
191	C	0.269958	0.491463	0.978373
192	C	0.234142	0.464844	0.982114
193	N	0.213693	0.472541	0.675385
194	C	0.224551	0.003526	0.697442
195	H	0.287451	0.487954	0.959505
196	C	0.200241	0.00664	0.723871
197	O	0.168846	0.984099	0.722445
198	H	0.208512	0.017401	0.753665
199	N	0.221512	0.432412	0.962858
200	H	0.238971	0.428243	0.948253
201	N	0.274096	0.064043	0.709302
202	H	0.257278	0.069219	0.723482
203	C	0.465281	0.229162	0.692282
204	N	0.473171	0.25765	0.999353
205	C	0.004391	0.27766	0.97822
206	C	0.031011	0.268463	0.981938
207	N	0.023325	0.240318	0.675202
208	C	0.492346	0.220186	0.697269
209	H	0.007894	0.298658	0.959349
210	C	0.489253	0.192778	0.723715
211	O	0.511789	0.183918	0.722263
212	H	0.478521	0.190311	0.753522
213	N	0.06344	0.288259	0.962668
214	H	0.067616	0.309899	0.948087
215	N	0.431845	0.209231	0.709203
216	H	0.426679	0.187247	0.723409
217	C	0.176073	0.86896	0.956495
218	C	0.139564	0.843189	0.955967
219	C	0.126889	0.806278	0.956366
220	C	0.152673	0.795551	0.955927
221	C	0.189583	0.819786	0.289765
222	C	0.20032	0.8563	0.955967
223	H	0.144078	0.769178	0.958485
224	H	0.226682	0.87407	0.958688
225	H	0.121786	0.851779	0.958555
226	C	0.187118	0.905403	0.96299
227	C	0.214983	0.808744	0.296253
228	C	0.090442	0.780867	0.962781
229	O	0.24898	0.83416	0.971293
230	O	0.1617	0.913982	0.971363
231	O	0.081855	0.746861	0.971107
232	C	0.319211	0.627765	0.045392
233	C	0.35565	0.653732	0.045631
234	C	0.368131	0.690625	0.045397
235	C	0.342154	0.701087	0.045607
236	C	0.305263	0.67668	0.37876
237	C	0.294797	0.64024	0.045642
238	H	0.350625	0.727433	0.043075
239	H	0.26845	0.622369	0.043135
240	H	0.373525	0.645264	0.043078
241	C	0.308371	0.591219	0.040366
242	C	0.279558	0.687515	0.37369
243	C	0.404669	0.71633	0.040292
244	O	0.245541	0.662049	0.032261
245	O	0.333837	0.582666	0.032274
246	O	0.413208	0.750338	0.032168
247	C	0.266731	0.735305	0.025712
248	N	0.238232	0.714706	0.332799
249	C	0.218215	0.72591	0.311675
250	C	0.227392	0.761717	0.315422
251	N	0.255558	0.78218	0.008655
252	C	0.275725	0.771358	0.030708
253	H	0.19719	0.708402	0.292851
254	C	0.30323	0.795606	0.057175
255	O	0.311607	0.826884	0.055559
256	H	0.305363	0.787419	0.087124
257	N	0.207593	0.774348	0.296156
258	H	0.185965	0.756886	0.281559
259	N	0.286664	0.721794	0.042612
260	H	0.308648	0.738602	0.056825
261	C	0.260598	0.530589	0.025786
262	N	0.281177	0.522688	0.332832
263	C	0.269958	0.991463	0.311707
264	C	0.234142	0.964844	0.315449
265	N	0.213694	0.972543	0.00872
266	C	0.224552	0.503528	0.030776
267	H	0.287451	0.987953	0.29284
268	C	0.200241	0.50664	0.057206
269	O	0.168845	0.4841	0.055778
270	H	0.208513	0.517401	0.086999
271	N	0.221511	0.932411	0.296193
272	H	0.238971	0.928242	0.281586
273	N	0.274097	0.564044	0.042635
274	H	0.257278	0.569219	0.056817
275	C	0.46528	0.729163	0.025617
276	N	0.47317	0.757649	0.332686
277	C	0.004392	0.777662	0.311554
278	C	0.031011	0.768463	0.315272
279	N	0.023325	0.740319	0.008538
280	C	0.492347	0.720186	0.030604
281	H	0.007894	0.798658	0.292682
282	C	0.489253	0.692778	0.057049
283	O	0.511789	0.683918	0.055598
284	H	0.47852	0.69031	0.086856
285	N	0.063439	0.788259	0.296003
286	H	0.067615	0.809898	0.281421
287	N	0.431846	0.709232	0.042537
288	H	0.42668	0.687248	0.056742
289	C	0.176073	0.86896	0.28983
290	C	0.139564	0.843189	0.289302
291	C	0.126889	0.806278	0.289701
292	C	0.152673	0.795551	0.289262
293	C	0.189583	0.819786	0.623099
294	C	0.20032	0.8563	0.2893
295	H	0.144078	0.769178	0.291818
296	H	0.226682	0.87407	0.292021
297	H	0.121786	0.851779	0.291888
298	C	0.187118	0.905403	0.296323
299	C	0.214983	0.808744	0.629587
300	C	0.090442	0.780867	0.296115
301	O	0.24898	0.83416	0.304627
302	O	0.1617	0.913982	0.304696
303	O	0.081855	0.746861	0.304439
304	C	0.319211	0.627765	0.378726
305	C	0.35565	0.653732	0.378962
306	C	0.368131	0.690625	0.37873
307	C	0.342154	0.701087	0.378939
308	C	0.305263	0.67668	0.712093
309	C	0.294797	0.64024	0.378975
310	H	0.350625	0.727433	0.376407
311	H	0.26845	0.622369	0.376467
312	H	0.373525	0.645264	0.376411
313	C	0.308371	0.591219	0.3737
314	C	0.279558	0.687515	0.707023
315	C	0.404669	0.71633	0.373627
316	O	0.245541	0.662049	0.365593
317	O	0.333837	0.582666	0.365607
318	O	0.413208	0.750338	0.3655
319	C	0.266731	0.735305	0.359045
320	N	0.238232	0.714706	0.666132
321	C	0.218215	0.72591	0.645009
322	C	0.227392	0.761717	0.648757
323	N	0.255558	0.78218	0.341988
324	C	0.275725	0.771358	0.364042
325	H	0.19719	0.708402	0.626185
326	C	0.30323	0.795606	0.390507
327	O	0.311607	0.826884	0.388893
328	H	0.305363	0.787419	0.420458
329	N	0.207593	0.774348	0.629487
330	H	0.185965	0.756886	0.614892
331	N	0.286664	0.721794	0.375946
332	H	0.308648	0.738602	0.390158
333	C	0.260598	0.530589	0.359118
334	N	0.281177	0.522688	0.666166
335	C	0.269958	0.991463	0.645039
336	C	0.234142	0.964844	0.648783
337	N	0.213694	0.972543	0.342051
338	C	0.224552	0.503528	0.364108
339	H	0.287451	0.987953	0.626172
340	C	0.200241	0.50664	0.39054
341	O	0.168845	0.4841	0.389112
342	H	0.208513	0.517401	0.420332
343	N	0.221511	0.932411	0.629527
344	H	0.238971	0.928242	0.614919
345	N	0.274097	0.564044	0.375969
346	H	0.257278	0.569219	0.390152
347	C	0.46528	0.729163	0.358949
348	N	0.47317	0.757649	0.666019
349	C	0.004392	0.777662	0.644886
350	C	0.031011	0.768463	0.648604
351	N	0.023325	0.740319	0.341872
352	C	0.492347	0.720186	0.363935
353	H	0.007894	0.798658	0.626016
354	C	0.489253	0.692778	0.390381
355	O	0.511789	0.683918	0.388932
356	H	0.47852	0.69031	0.420189
357	N	0.063439	0.788259	0.629335
358	H	0.067615	0.809898	0.614753
359	N	0.431846	0.709232	0.375869
360	H	0.42668	0.687248	0.390075
361	C	0.176073	0.86896	0.623162
362	C	0.139564	0.843189	0.622633
363	C	0.126889	0.806278	0.623035
364	C	0.152673	0.795551	0.622597
365	C	0.189583	0.819786	0.956432
366	C	0.20032	0.8563	0.622633
367	H	0.144078	0.769178	0.625152
368	H	0.226682	0.87407	0.625354
369	H	0.121786	0.851779	0.625222
370	C	0.187118	0.905403	0.629657
371	C	0.214983	0.808744	0.962921
372	C	0.090442	0.780867	0.629447
373	O	0.24898	0.83416	0.637959
374	O	0.1617	0.913982	0.638029
375	O	0.081855	0.746861	0.637773
376	C	0.319211	0.627765	0.71206
377	C	0.35565	0.653732	0.712296
378	C	0.368131	0.690625	0.712063
379	C	0.342154	0.701087	0.712273
380	C	0.305263	0.67668	0.045427
381	C	0.294797	0.64024	0.712309
382	H	0.350625	0.727433	0.709741
383	H	0.26845	0.622369	0.709801
384	H	0.373525	0.645264	0.709744
385	C	0.308371	0.591219	0.707033
386	C	0.279558	0.687515	0.040356
387	C	0.404669	0.71633	0.706957
388	O	0.245541	0.662049	0.698927
389	O	0.333837	0.582666	0.69894
390	O	0.413208	0.750338	0.698834
391	C	0.266731	0.735305	0.692379
392	N	0.238232	0.714706	0.999467
393	C	0.218215	0.72591	0.978339
394	C	0.227392	0.761717	0.982087
395	N	0.255558	0.78218	0.675322
396	C	0.275725	0.771358	0.697372
397	H	0.19719	0.708402	0.959515
398	C	0.30323	0.795606	0.723841
399	O	0.311607	0.826884	0.722226
400	H	0.305363	0.787419	0.753791
401	N	0.207593	0.774348	0.962821
402	H	0.185965	0.756886	0.948226
403	N	0.286664	0.721794	0.709279
404	H	0.308648	0.738602	0.723492
405	C	0.260598	0.530589	0.692452
406	N	0.281177	0.522688	0.9995
407	C	0.269958	0.991463	0.978373
408	C	0.234142	0.964844	0.982114
409	N	0.213694	0.972543	0.675385
410	C	0.224552	0.503528	0.697442
411	H	0.287451	0.987953	0.959505
412	C	0.200241	0.50664	0.723871
413	O	0.168845	0.4841	0.722445
414	H	0.208513	0.517401	0.753665
415	N	0.221511	0.932411	0.962858
416	H	0.238971	0.928242	0.948253
417	N	0.274097	0.564044	0.709302
418	H	0.257278	0.569219	0.723482
419	C	0.46528	0.729163	0.692282
420	N	0.47317	0.757649	0.999353
421	C	0.004392	0.777662	0.97822
422	C	0.031011	0.768463	0.981938
423	N	0.023325	0.740319	0.675202
424	C	0.492347	0.720186	0.697269
425	H	0.007894	0.798658	0.959349
426	C	0.489253	0.692778	0.723715
427	O	0.511789	0.683918	0.722263
428	H	0.47852	0.69031	0.753522
429	N	0.063439	0.788259	0.962668
430	H	0.067615	0.809898	0.948087
431	N	0.431846	0.709232	0.709203
432	H	0.42668	0.687248	0.723409
433	C	0.676074	0.368961	0.956495
434	C	0.639564	0.34319	0.955967
435	C	0.626889	0.306278	0.956366
436	C	0.65267	0.295551	0.955927
437	C	0.689582	0.319786	0.289765
438	C	0.70032	0.3563	0.955967
439	H	0.644079	0.269179	0.958485
440	H	0.72668	0.374067	0.958688
441	H	0.621784	0.351779	0.958555
442	C	0.687118	0.405403	0.96299
443	C	0.714983	0.308744	0.296253
444	C	0.590443	0.280867	0.962781
445	O	0.74898	0.33416	0.971293
446	O	0.6617	0.413982	0.971363
447	O	0.581853	0.246861	0.971107
448	C	0.819211	0.127764	0.045392
449	C	0.855651	0.153733	0.045631
450	C	0.868131	0.190624	0.045397
451	C	0.842153	0.201087	0.045607
452	C	0.805263	0.176679	0.37876
453	C	0.794796	0.140239	0.045642
454	H	0.850623	0.227432	0.043075
455	H	0.768449	0.12237	0.043135
456	H	0.873524	0.145263	0.043077
457	C	0.808372	0.091218	0.040366
458	C	0.779557	0.187517	0.37369
459	C	0.904669	0.216329	0.040292
460	O	0.745542	0.162049	0.032261
461	O	0.833838	0.082668	0.032274
462	O	0.913208	0.250339	0.032168
463	C	0.76673	0.235305	0.025712
464	N	0.738232	0.214706	0.332799
465	C	0.718215	0.22591	0.311675
466	C	0.727393	0.261718	0.315422
467	N	0.755557	0.282181	0.008655
468	C	0.775723	0.271356	0.030708
469	H	0.697189	0.208402	0.292851
470	C	0.80323	0.295607	0.057175
471	O	0.811607	0.326885	0.055559
472	H	0.805362	0.28742	0.087124
473	N	0.707594	0.274349	0.296156
474	H	0.685964	0.256885	0.281559
475	N	0.786663	0.221794	0.042612
476	H	0.808649	0.238603	0.056825
477	C	0.760596	0.030588	0.025786
478	N	0.781176	0.022688	0.332832
479	C	0.769959	0.491463	0.311707
480	C	0.734142	0.464844	0.315449
481	N	0.713693	0.472541	0.00872
482	C	0.72455	0.003526	0.030776
483	H	0.787451	0.487954	0.29284
484	C	0.700242	0.00664	0.057206
485	O	0.668844	0.984099	0.055778
486	H	0.708512	0.017401	0.086999
487	N	0.721511	0.432412	0.296193
488	H	0.73897	0.428243	0.281586
489	N	0.774096	0.064043	0.042635
490	H	0.757277	0.069219	0.056817
491	C	0.965279	0.229162	0.025617
492	N	0.973171	0.25765	0.332686
493	C	0.504391	0.27766	0.311554
494	C	0.531011	0.268463	0.315272
495	N	0.523324	0.240318	0.008538
496	C	0.992346	0.220186	0.030604
497	H	0.507894	0.298658	0.292682
498	C	0.989253	0.192778	0.057049
499	O	0.011789	0.183918	0.055598
500	H	0.978521	0.190311	0.086856
501	N	0.563439	0.288259	0.296003
502	H	0.567616	0.309899	0.281421
503	N	0.931845	0.209231	0.042537
504	H	0.926679	0.187247	0.056742
505	C	0.676074	0.368961	0.28983
506	C	0.639564	0.34319	0.289302
507	C	0.626889	0.306278	0.289701
508	C	0.65267	0.295551	0.289262
509	C	0.689582	0.319786	0.623099
510	C	0.70032	0.3563	0.2893
511	H	0.644079	0.269179	0.291818
512	H	0.72668	0.374067	0.292021
513	H	0.621784	0.351779	0.291888
514	C	0.687118	0.405403	0.296323
515	C	0.714983	0.308744	0.629587
516	C	0.590443	0.280867	0.296115
517	O	0.74898	0.33416	0.304627
518	O	0.6617	0.413982	0.304696
519	O	0.581853	0.246861	0.304439
520	C	0.819211	0.127764	0.378726
521	C	0.855651	0.153733	0.378962
522	C	0.868131	0.190624	0.37873
523	C	0.842153	0.201087	0.378939
524	C	0.805263	0.176679	0.712093
525	C	0.794796	0.140239	0.378975
526	H	0.850623	0.227432	0.376407
527	H	0.768449	0.12237	0.376467
528	H	0.873524	0.145263	0.376411
529	C	0.808372	0.091218	0.3737
530	C	0.779557	0.187517	0.707023
531	C	0.904669	0.216329	0.373627
532	O	0.745542	0.162049	0.365593
533	O	0.833838	0.082668	0.365607
534	O	0.913208	0.250339	0.3655
535	C	0.76673	0.235305	0.359045
536	N	0.738232	0.214706	0.666132
537	C	0.718215	0.22591	0.645009
538	C	0.727393	0.261718	0.648757
539	N	0.755557	0.282181	0.341988
540	C	0.775723	0.271356	0.364042
541	H	0.697189	0.208402	0.626185
542	C	0.80323	0.295607	0.390507
543	O	0.811607	0.326885	0.388893
544	H	0.805362	0.28742	0.420458
545	N	0.707594	0.274349	0.629487
546	H	0.685964	0.256885	0.614892
547	N	0.786663	0.221794	0.375946
548	H	0.808649	0.238603	0.390158
549	C	0.760596	0.030588	0.359118
550	N	0.781176	0.022688	0.666166
551	C	0.769959	0.491463	0.645039
552	C	0.734142	0.464844	0.648783
553	N	0.713693	0.472541	0.342051
554	C	0.72455	0.003526	0.364108
555	H	0.787451	0.487954	0.626172
556	C	0.700242	0.00664	0.39054
557	O	0.668844	0.984099	0.389112
558	H	0.708512	0.017401	0.420332
559	N	0.721511	0.432412	0.629527
560	H	0.73897	0.428243	0.614919
561	N	0.774096	0.064043	0.375969
562	H	0.757277	0.069219	0.390152
563	C	0.965279	0.229162	0.358949
564	N	0.973171	0.25765	0.666019
565	C	0.504391	0.27766	0.644886
566	C	0.531011	0.268463	0.648604
567	N	0.523324	0.240318	0.341872
568	C	0.992346	0.220186	0.363935
569	H	0.507894	0.298658	0.626016
570	C	0.989253	0.192778	0.390381
571	O	0.011789	0.183918	0.388932
572	H	0.978521	0.190311	0.420189
573	N	0.563439	0.288259	0.629335
574	H	0.567616	0.309899	0.614753
575	N	0.931845	0.209231	0.375869
576	H	0.926679	0.187247	0.390075
577	C	0.676074	0.368961	0.623162
578	C	0.639564	0.34319	0.622633
579	C	0.626889	0.306278	0.623035
580	C	0.65267	0.295551	0.622597
581	C	0.689582	0.319786	0.956432
582	C	0.70032	0.3563	0.622633
583	H	0.644079	0.269179	0.625152
584	H	0.72668	0.374067	0.625354
585	H	0.621784	0.351779	0.625222
586	C	0.687118	0.405403	0.629657
587	C	0.714983	0.308744	0.962921
588	C	0.590443	0.280867	0.629447
589	O	0.74898	0.33416	0.637959
590	O	0.6617	0.413982	0.638029
591	O	0.581853	0.246861	0.637773
592	C	0.819211	0.127764	0.712057
593	C	0.855651	0.153733	0.712296
594	C	0.868131	0.190624	0.712063
595	C	0.842153	0.201087	0.712273
596	C	0.805263	0.176679	0.045427
597	C	0.794796	0.140239	0.712309
598	H	0.850623	0.227432	0.709741
599	H	0.768449	0.12237	0.709801
600	H	0.873524	0.145263	0.709744
601	C	0.808372	0.091218	0.707033
602	C	0.779557	0.187517	0.040356
603	C	0.904669	0.216329	0.706957
604	O	0.745542	0.162049	0.698927
605	O	0.833838	0.082668	0.69894
606	O	0.913208	0.250339	0.698834
607	C	0.76673	0.235305	0.692379
608	N	0.738232	0.214706	0.999467
609	C	0.718215	0.22591	0.978339
610	C	0.727393	0.261718	0.982087
611	N	0.755557	0.282181	0.675322
612	C	0.775723	0.271356	0.697372
613	H	0.697189	0.208402	0.959515
614	C	0.80323	0.295607	0.723841
615	O	0.811607	0.326885	0.722226
616	H	0.805362	0.28742	0.753791
617	N	0.707594	0.274349	0.962821
618	H	0.685964	0.256885	0.948226
619	N	0.786663	0.221794	0.709279
620	H	0.808649	0.238603	0.723492
621	C	0.760596	0.030588	0.692452
622	N	0.781176	0.022688	0.9995
623	C	0.769959	0.491463	0.978373
624	C	0.734142	0.464844	0.982114
625	N	0.713693	0.472541	0.675385
626	C	0.72455	0.003526	0.697442
627	H	0.787451	0.487954	0.959505
628	C	0.700242	0.00664	0.723871
629	O	0.668844	0.984099	0.722445
630	H	0.708512	0.017401	0.753665
631	N	0.721511	0.432412	0.962858
632	H	0.73897	0.428243	0.948253
633	N	0.774096	0.064043	0.709302
634	H	0.757277	0.069219	0.723482
635	C	0.965279	0.229162	0.692282
636	N	0.973171	0.25765	0.999353
637	C	0.504391	0.27766	0.97822
638	C	0.531011	0.268463	0.981938
639	N	0.523324	0.240318	0.675202
640	C	0.992346	0.220186	0.697269
641	H	0.507894	0.298658	0.959349
642	C	0.989253	0.192778	0.723715
643	O	0.011789	0.183918	0.722263
644	H	0.978521	0.190311	0.753522
645	N	0.563439	0.288259	0.962668
646	H	0.567616	0.309899	0.948087
647	N	0.931845	0.209231	0.709203
648	H	0.926679	0.187247	0.723409
649	C	0.676073	0.86896	0.956495
650	C	0.639565	0.843189	0.955967
651	C	0.626889	0.806278	0.956366
652	C	0.65267	0.795551	0.955927
653	C	0.689581	0.819786	0.289765
654	C	0.700319	0.8563	0.955967
655	H	0.644078	0.769178	0.958485
656	H	0.726683	0.87407	0.958688
657	H	0.621784	0.851779	0.958555
658	C	0.687118	0.905403	0.96299
659	C	0.714983	0.808744	0.296253
660	C	0.590443	0.780867	0.962781
661	O	0.74898	0.83416	0.971293
662	O	0.6617	0.913982	0.971363
663	O	0.581854	0.746861	0.971107
664	C	0.819211	0.627765	0.045392
665	C	0.855651	0.653732	0.045631
666	C	0.868131	0.690625	0.045397
667	C	0.842153	0.701087	0.045607
668	C	0.805263	0.67668	0.37876
669	C	0.794796	0.64024	0.045642
670	H	0.850626	0.727433	0.043075
671	H	0.768449	0.622369	0.043135
672	H	0.873524	0.645264	0.043078
673	C	0.808372	0.591219	0.040366
674	C	0.779557	0.687515	0.37369
675	C	0.904669	0.71633	0.040292
676	O	0.745542	0.662049	0.032261
677	O	0.833837	0.582666	0.032274
678	O	0.913207	0.750338	0.032168
679	C	0.76673	0.735305	0.025712
680	N	0.738232	0.714706	0.332799
681	C	0.718215	0.72591	0.311675
682	C	0.727393	0.761717	0.315422
683	N	0.755557	0.78218	0.008655
684	C	0.775724	0.771358	0.030708
685	H	0.697189	0.708402	0.292851
686	C	0.80323	0.795606	0.057175
687	O	0.811607	0.826884	0.055559
688	H	0.805362	0.787419	0.087124
689	N	0.707593	0.774348	0.296156
690	H	0.685964	0.756886	0.281559
691	N	0.786663	0.721794	0.042612
692	H	0.808649	0.738602	0.056825
693	C	0.760597	0.530589	0.025786
694	N	0.781176	0.522688	0.332832
695	C	0.769958	0.991463	0.311707
696	C	0.734142	0.964844	0.315449
697	N	0.713694	0.972543	0.00872
698	C	0.72455	0.503528	0.030776
699	H	0.787451	0.987953	0.29284
700	C	0.700242	0.50664	0.057206
701	O	0.668844	0.4841	0.055778
702	H	0.708512	0.517401	0.086999
703	N	0.721511	0.932411	0.296193
704	H	0.73897	0.928242	0.281586
705	N	0.774097	0.564044	0.042635
706	H	0.757279	0.569219	0.056817
707	C	0.965279	0.729163	0.025617
708	N	0.97317	0.757649	0.332686
709	C	0.504391	0.777662	0.311554
710	C	0.531011	0.768463	0.315272
711	N	0.523325	0.740319	0.008538
712	C	0.992346	0.720186	0.030604
713	H	0.507893	0.798658	0.292682
714	C	0.989253	0.692778	0.057049
715	O	0.011789	0.683918	0.055598
716	H	0.97852	0.69031	0.086856
717	N	0.56344	0.788259	0.296003
718	H	0.567615	0.809898	0.281421
719	N	0.931845	0.709232	0.042537
720	H	0.92668	0.687248	0.056742
721	C	0.676073	0.86896	0.28983
722	C	0.639565	0.843189	0.289302
723	C	0.626889	0.806278	0.289701
724	C	0.65267	0.795551	0.289262
725	C	0.689581	0.819786	0.623099
726	C	0.700319	0.8563	0.2893
727	H	0.644078	0.769178	0.291818
728	H	0.726683	0.87407	0.292021
729	H	0.621784	0.851779	0.291888
730	C	0.687118	0.905403	0.296323
731	C	0.714983	0.808744	0.629587
732	C	0.590443	0.780867	0.296115
733	O	0.74898	0.83416	0.304627
734	O	0.6617	0.913982	0.304696
735	O	0.581854	0.746861	0.304439
736	C	0.819211	0.627765	0.378726
737	C	0.855651	0.653732	0.378962
738	C	0.868131	0.690625	0.37873
739	C	0.842153	0.701087	0.378939
740	C	0.805263	0.67668	0.712093
741	C	0.794796	0.64024	0.378975
742	H	0.850626	0.727433	0.376407
743	H	0.768449	0.622369	0.376467
744	H	0.873524	0.645264	0.376411
745	C	0.808372	0.591219	0.3737
746	C	0.779557	0.687515	0.707023
747	C	0.904669	0.71633	0.373627
748	O	0.745542	0.662049	0.365593
749	O	0.833837	0.582666	0.365607
750	O	0.913207	0.750338	0.3655
751	C	0.76673	0.735305	0.359045
752	N	0.738232	0.714706	0.666132
753	C	0.718215	0.72591	0.645009
754	C	0.727393	0.761717	0.648757
755	N	0.755557	0.78218	0.341988
756	C	0.775724	0.771358	0.364042
757	H	0.697189	0.708402	0.626185
758	C	0.80323	0.795606	0.390507
759	O	0.811607	0.826884	0.388893
760	H	0.805362	0.787419	0.420458
761	N	0.707593	0.774348	0.629487
762	H	0.685964	0.756886	0.614892
763	N	0.786663	0.721794	0.375946
764	H	0.808649	0.738602	0.390158
765	C	0.760597	0.530589	0.359118
766	N	0.781176	0.522688	0.666166
767	C	0.769958	0.991463	0.645039
768	C	0.734142	0.964844	0.648783
769	N	0.713694	0.972543	0.342051
770	C	0.72455	0.503528	0.364108
771	H	0.787451	0.987953	0.626172
772	C	0.700242	0.50664	0.39054
773	O	0.668844	0.4841	0.389112
774	H	0.708512	0.517401	0.420332
775	N	0.721511	0.932411	0.629527
776	H	0.73897	0.928242	0.614919
777	N	0.774097	0.564044	0.375969
778	H	0.757279	0.569219	0.390152
779	C	0.965279	0.729163	0.358949
780	N	0.97317	0.757649	0.666019
781	C	0.504391	0.777662	0.644886
782	C	0.531011	0.768463	0.648604
783	N	0.523325	0.740319	0.341872
784	C	0.992346	0.720186	0.363935
785	H	0.507893	0.798658	0.626016
786	C	0.989253	0.692778	0.390381
787	O	0.011789	0.683918	0.388932
788	H	0.97852	0.69031	0.420189
789	N	0.56344	0.788259	0.629335
790	H	0.567615	0.809898	0.614753
791	N	0.931845	0.709232	0.375869
792	H	0.92668	0.687248	0.390075
793	C	0.676073	0.86896	0.623162
794	C	0.639565	0.843189	0.622633
795	C	0.626889	0.806278	0.623035
796	C	0.65267	0.795551	0.622597
797	C	0.689581	0.819786	0.956432
798	C	0.700319	0.8563	0.622633
799	H	0.644078	0.769178	0.625152
800	H	0.726683	0.87407	0.625354
801	H	0.621784	0.851779	0.625222
802	C	0.687118	0.905403	0.629657
803	C	0.714983	0.808744	0.962921
804	C	0.590443	0.780867	0.629447
805	O	0.74898	0.83416	0.637959
806	O	0.6617	0.913982	0.638029
807	O	0.581854	0.746861	0.637773
808	C	0.819211	0.627765	0.71206
809	C	0.855651	0.653732	0.712296
810	C	0.868131	0.690625	0.712063
811	C	0.842153	0.701087	0.712273
812	C	0.805263	0.67668	0.045427
813	C	0.794796	0.64024	0.712309
814	H	0.850626	0.727433	0.709741
815	H	0.768449	0.622369	0.709801
816	H	0.873524	0.645264	0.709744
817	C	0.808372	0.591219	0.707033
818	C	0.779557	0.687515	0.040356
819	C	0.904669	0.71633	0.706957
820	O	0.745542	0.662049	0.698927
821	O	0.833837	0.582666	0.69894
822	O	0.913207	0.750338	0.698834
823	C	0.76673	0.735305	0.692379
824	N	0.738232	0.714706	0.999467
825	C	0.718215	0.72591	0.978339
826	C	0.727393	0.761717	0.982087
827	N	0.755557	0.78218	0.675322
828	C	0.775724	0.771358	0.697372
829	H	0.697189	0.708402	0.959515
830	C	0.80323	0.795606	0.723841
831	O	0.811607	0.826884	0.722226
832	H	0.805362	0.787419	0.753791
833	N	0.707593	0.774348	0.962821
834	H	0.685964	0.756886	0.948226
835	N	0.786663	0.721794	0.709279
836	H	0.808649	0.738602	0.723492
837	C	0.760597	0.530589	0.692452
838	N	0.781176	0.522688	0.9995
839	C	0.769958	0.991463	0.978373
840	C	0.734142	0.964844	0.982114
841	N	0.713694	0.972543	0.675385
842	C	0.72455	0.503528	0.697442
843	H	0.787451	0.987953	0.959505
844	C	0.700242	0.50664	0.723871
845	O	0.668844	0.4841	0.722445
846	H	0.708512	0.517401	0.753665
847	N	0.721511	0.932411	0.962858
848	H	0.73897	0.928242	0.948253
849	N	0.774097	0.564044	0.709302
850	H	0.757279	0.569219	0.723482
851	C	0.965279	0.729163	0.692282
852	N	0.97317	0.757649	0.999353
853	C	0.504391	0.777662	0.97822
854	C	0.531011	0.768463	0.981938
855	N	0.523325	0.740319	0.675202
856	C	0.992346	0.720186	0.697269
857	H	0.507893	0.798658	0.959349
858	C	0.989253	0.692778	0.723715
859	O	0.011789	0.683918	0.722263
860	H	0.97852	0.69031	0.753522
861	N	0.56344	0.788259	0.962668
862	H	0.567615	0.809898	0.948087
863	N	0.931845	0.709232	0.709203
864	H	0.92668	0.687248	0.723409
